WIDTH=16;
DEPTH=164480;
ADDRESS_RADIX=HEX;
DATA_RADIX=HEX;
CONTENT BEGIN
    0 : 0000;
    1 : 0000;
    2 : 0000;
    3 : 0000;
    4 : 0000;
    5 : 0000;
    6 : 0000;
    7 : 0000;
    8 : 0000;
    9 : 0000;
    A : 0000;
    B : 0000;
    C : 0000;
    D : 0000;
    E : 0000;
    F : 0000;
    10 : 0000;
    11 : 0000;
    12 : 0000;
    13 : 0000;
    14 : 0000;
    15 : 0000;
    16 : 0000;
    17 : 0000;
    18 : 0000;
    19 : 0000;
    1A : 0000;
    1B : 0000;
    1C : 0000;
    1D : 0000;
    1E : 0000;
    1F : 0000;
    20 : 0000;
    21 : 0000;
    22 : 0000;
    23 : 0000;
    24 : 0000;
    25 : 0000;
    26 : 0000;
    27 : 0000;
    28 : 0000;
    29 : 0000;
    2A : 0000;
    2B : 0000;
    2C : 0000;
    2D : 0000;
    2E : 0000;
    2F : 0000;
    30 : 0000;
    31 : 0000;
    32 : 0000;
    33 : 0000;
    34 : 0000;
    35 : 0000;
    36 : 0000;
    37 : 0000;
    38 : 0000;
    39 : 0000;
    3A : 0000;
    3B : 0000;
    3C : 0000;
    3D : 0000;
    3E : 0000;
    3F : 0000;
    40 : 0000;
    41 : 0000;
    42 : 0000;
    43 : 0000;
    44 : 0000;
    45 : 0000;
    46 : 0000;
    47 : 0000;
    48 : 0000;
    49 : 0000;
    4A : 0000;
    4B : 0000;
    4C : 0000;
    4D : 0000;
    4E : 0000;
    4F : 0000;
    50 : 0000;
    51 : 0000;
    52 : 0000;
    53 : 0000;
    54 : 0000;
    55 : 0000;
    56 : 0000;
    57 : 0000;
    58 : 0000;
    59 : 0000;
    5A : 0000;
    5B : 0000;
    5C : 0000;
    5D : 0000;
    5E : 0000;
    5F : 0000;
    60 : 0000;
    61 : 0000;
    62 : 0000;
    63 : 0000;
    64 : 0000;
    65 : 0000;
    66 : 0000;
    67 : 0000;
    68 : 0000;
    69 : 0000;
    6A : 0000;
    6B : 0000;
    6C : 0000;
    6D : 0000;
    6E : 0000;
    6F : 0000;
    70 : 0000;
    71 : 0000;
    72 : 0000;
    73 : 0000;
    74 : 0000;
    75 : 0000;
    76 : 0000;
    77 : 0000;
    78 : 0000;
    79 : 0000;
    7A : 0000;
    7B : 0000;
    7C : 0000;
    7D : 0000;
    7E : 0000;
    7F : 0000;
    80 : 0000;
    81 : 0000;
    82 : 0000;
    83 : 0000;
    84 : 0000;
    85 : 0000;
    86 : 0000;
    87 : 0000;
    88 : 0000;
    89 : 0000;
    8A : 0000;
    8B : 0000;
    8C : 0000;
    8D : 0000;
    8E : 0000;
    8F : 0000;
    90 : 0000;
    91 : 0000;
    92 : 0000;
    93 : 0000;
    94 : 0000;
    95 : 0000;
    96 : 0000;
    97 : 0000;
    98 : 0000;
    99 : 0000;
    9A : 0000;
    9B : 0000;
    9C : 0000;
    9D : 0000;
    9E : 0000;
    9F : 0000;
    A0 : 0000;
    A1 : 0000;
    A2 : 0000;
    A3 : 0000;
    A4 : 0000;
    A5 : 0000;
    A6 : 0000;
    A7 : 0000;
    A8 : 0000;
    A9 : 0000;
    AA : 0000;
    AB : 0000;
    AC : 0000;
    AD : 0000;
    AE : 0000;
    AF : 0000;
    B0 : 0000;
    B1 : 0000;
    B2 : 0000;
    B3 : 0000;
    B4 : 0000;
    B5 : 0000;
    B6 : 0000;
    B7 : 0000;
    B8 : 0000;
    B9 : 0000;
    BA : 0000;
    BB : 0000;
    BC : 0000;
    BD : 0000;
    BE : 0000;
    BF : 0000;
    C0 : 0000;
    C1 : 0000;
    C2 : 0000;
    C3 : 0000;
    C4 : 0000;
    C5 : 0000;
    C6 : 0000;
    C7 : 0000;
    C8 : 0000;
    C9 : 0000;
    CA : 0000;
    CB : 0000;
    CC : 0000;
    CD : 0000;
    CE : 0000;
    CF : 0000;
    D0 : 0000;
    D1 : 0000;
    D2 : 0000;
    D3 : 0000;
    D4 : 0000;
    D5 : 0000;
    D6 : 0000;
    D7 : 0000;
    D8 : 0000;
    D9 : 0000;
    DA : 0000;
    DB : 0000;
    DC : 0000;
    DD : 0000;
    DE : 0000;
    DF : 0000;
    E0 : 0000;
    E1 : 0000;
    E2 : 0000;
    E3 : 0000;
    E4 : 0000;
    E5 : 0000;
    E6 : 0000;
    E7 : 0000;
    E8 : 0000;
    E9 : 0000;
    EA : 0000;
    EB : 0000;
    EC : 0000;
    ED : 0000;
    EE : 0000;
    EF : 0000;
    F0 : 0000;
    F1 : 0000;
    F2 : 0000;
    F3 : 0000;
    F4 : 0000;
    F5 : 0000;
    F6 : 0000;
    F7 : 0000;
    F8 : 0000;
    F9 : 0000;
    FA : 0000;
    FB : 0000;
    FC : 0000;
    FD : 0000;
    FE : 0000;
    FF : 0000;
    100 : 0000;
    101 : 0000;
    102 : 0000;
    103 : 0000;
    104 : 0000;
    105 : 0000;
    106 : 0000;
    107 : 0000;
    108 : 0000;
    109 : 0000;
    10A : 0000;
    10B : 0000;
    10C : 0000;
    10D : 0000;
    10E : 0000;
    10F : 0000;
    110 : 0000;
    111 : 0000;
    112 : 0000;
    113 : 0000;
    114 : 0000;
    115 : 0000;
    116 : 0000;
    117 : 0000;
    118 : 0000;
    119 : 0000;
    11A : 0000;
    11B : 0000;
    11C : 0000;
    11D : 0000;
    11E : 0000;
    11F : 0000;
    120 : FFFF;
    121 : 0000;
    122 : 0000;
    123 : 0000;
    124 : 0000;
    125 : 0000;
    126 : FFFF;
    127 : FFFF;
    128 : 0000;
    129 : 0000;
    12A : 0000;
    12B : FFFF;
    12C : FFFF;
    12D : FFFF;
    12E : FFFF;
    12F : 0000;
    130 : 0000;
    131 : 0000;
    132 : FFFF;
    133 : FFFF;
    134 : FFFF;
    135 : FFFF;
    136 : 0000;
    137 : 0000;
    138 : 0000;
    139 : 0000;
    13A : FFFF;
    13B : FFFF;
    13C : 0000;
    13D : 0000;
    13E : 0000;
    13F : 0000;
    140 : FFFF;
    141 : FFFF;
    142 : FFFF;
    143 : FFFF;
    144 : FFFF;
    145 : FFFF;
    146 : FFFF;
    147 : FFFF;
    148 : 0000;
    149 : 0000;
    14A : 0001;
    14B : 0001;
    14C : 0001;
    14D : 0001;
    14E : FFFF;
    14F : FFFF;
    150 : 0001;
    151 : 0001;
    152 : 0001;
    153 : 0000;
    154 : FFFF;
    155 : FFFF;
    156 : 0000;
    157 : 0001;
    158 : 0002;
    159 : 0001;
    15A : FFFF;
    15B : FFFF;
    15C : 0000;
    15D : 0001;
    15E : 0000;
    15F : 0000;
    160 : FFFE;
    161 : FFFB;
    162 : FFFA;
    163 : FFFA;
    164 : FFFD;
    165 : FFFE;
    166 : 0000;
    167 : 0000;
    168 : FFF9;
    169 : FFF7;
    16A : FFF8;
    16B : FFFF;
    16C : 0003;
    16D : 0001;
    16E : FFFF;
    16F : FFFE;
    170 : FFFE;
    171 : FFFF;
    172 : FFFD;
    173 : FFFB;
    174 : FFFD;
    175 : FFF9;
    176 : FFF9;
    177 : FFFE;
    178 : 0006;
    179 : 0003;
    17A : 0003;
    17B : 0003;
    17C : 0000;
    17D : FFFB;
    17E : 0008;
    17F : 0002;
    180 : 0005;
    181 : 0003;
    182 : FFF9;
    183 : FFF7;
    184 : FFF0;
    185 : FFF4;
    186 : FFF7;
    187 : FFF8;
    188 : 0005;
    189 : 0003;
    18A : FFFD;
    18B : FFFC;
    18C : 0000;
    18D : FFF3;
    18E : FFD7;
    18F : FFC4;
    190 : FFC9;
    191 : FFD2;
    192 : FFD5;
    193 : FFBF;
    194 : FFC1;
    195 : FFC2;
    196 : FFC6;
    197 : FFC7;
    198 : FFC6;
    199 : FFC0;
    19A : FFCD;
    19B : FFEB;
    19C : FFE8;
    19D : FFDD;
    19E : FFE1;
    19F : FFDA;
    1A0 : FFEB;
    1A1 : FFDE;
    1A2 : FFE5;
    1A3 : FFDE;
    1A4 : FFC2;
    1A5 : FFCA;
    1A6 : FFCE;
    1A7 : FFC9;
    1A8 : FFB8;
    1A9 : FF9D;
    1AA : FF8F;
    1AB : FF9C;
    1AC : FFAA;
    1AD : FFB6;
    1AE : FFBD;
    1AF : FFCE;
    1B0 : FF89;
    1B1 : FF74;
    1B2 : FF76;
    1B3 : FF75;
    1B4 : FF5A;
    1B5 : FF51;
    1B6 : FF6C;
    1B7 : FF73;
    1B8 : FF66;
    1B9 : FF81;
    1BA : FF8B;
    1BB : FF5F;
    1BC : FED8;
    1BD : FE74;
    1BE : FE8D;
    1BF : FE5C;
    1C0 : FE86;
    1C1 : FE6B;
    1C2 : FE19;
    1C3 : FE35;
    1C4 : FE01;
    1C5 : FE02;
    1C6 : FE07;
    1C7 : FE10;
    1C8 : FECE;
    1C9 : FF53;
    1CA : FF7E;
    1CB : FF6F;
    1CC : FF67;
    1CD : FF72;
    1CE : FF4E;
    1CF : FED2;
    1D0 : FEC5;
    1D1 : FE63;
    1D2 : FDD6;
    1D3 : FDB7;
    1D4 : FE33;
    1D5 : FECC;
    1D6 : FE89;
    1D7 : FE3A;
    1D8 : FDEF;
    1D9 : FD80;
    1DA : FD96;
    1DB : FD7C;
    1DC : FD77;
    1DD : FE6A;
    1DE : FE54;
    1DF : FDC8;
    1E0 : FD41;
    1E1 : FD5C;
    1E2 : FDFD;
    1E3 : FD7B;
    1E4 : FD87;
    1E5 : FD8E;
    1E6 : FDC2;
    1E7 : FD92;
    1E8 : FDAA;
    1E9 : FC7D;
    1EA : FAC6;
    1EB : F956;
    1EC : F91A;
    1ED : F83B;
    1EE : F738;
    1EF : F65C;
    1F0 : F599;
    1F1 : F621;
    1F2 : F777;
    1F3 : F7BA;
    1F4 : F835;
    1F5 : F5ED;
    1F6 : F449;
    1F7 : F5C6;
    1F8 : F70F;
    1F9 : F6BB;
    1FA : F4E0;
    1FB : F3B0;
    1FC : F1F5;
    1FD : F0C4;
    1FE : F00C;
    1FF : F02D;
    200 : EFFE;
    201 : F1AE;
    202 : EFE2;
    203 : EF5A;
    204 : ECDA;
    205 : EB7F;
    206 : EBCD;
    207 : E984;
    208 : E88A;
    209 : EA8E;
    20A : E967;
    20B : E693;
    20C : E490;
    20D : E46F;
    20E : E6F5;
    20F : E528;
    210 : E5F2;
    211 : E7D2;
    212 : E97E;
    213 : EC97;
    214 : ED15;
    215 : EB4B;
    216 : E9D1;
    217 : EAD4;
    218 : EBF7;
    219 : EDAF;
    21A : EF4D;
    21B : EF17;
    21C : ED97;
    21D : EBE2;
    21E : E94F;
    21F : E8E0;
    220 : E924;
    221 : E8B2;
    222 : E9C0;
    223 : EBE2;
    224 : ED22;
    225 : ED7A;
    226 : EBD0;
    227 : ECE0;
    228 : EE70;
    229 : ECEC;
    22A : EF3B;
    22B : EFD9;
    22C : F1AE;
    22D : F617;
    22E : F883;
    22F : FA6D;
    230 : FD9B;
    231 : FC9F;
    232 : FB16;
    233 : FA42;
    234 : FA48;
    235 : F905;
    236 : F98E;
    237 : FB9D;
    238 : FD8F;
    239 : FDEA;
    23A : FCE9;
    23B : FC35;
    23C : FB93;
    23D : FDEE;
    23E : 004E;
    23F : 00B8;
    240 : 00F5;
    241 : 0365;
    242 : 0436;
    243 : 051A;
    244 : 0916;
    245 : 0C06;
    246 : 0AD8;
    247 : 0880;
    248 : 090B;
    249 : 08A8;
    24A : 0650;
    24B : 0524;
    24C : 0316;
    24D : 064B;
    24E : 0418;
    24F : 0275;
    250 : 02A7;
    251 : 047B;
    252 : 041F;
    253 : FEC1;
    254 : FF3D;
    255 : FADB;
    256 : F605;
    257 : F76D;
    258 : FF7E;
    259 : 03F5;
    25A : 0469;
    25B : 02EA;
    25C : 00F6;
    25D : 00CF;
    25E : 0042;
    25F : 0013;
    260 : 010F;
    261 : FF2E;
    262 : FF5A;
    263 : FF5C;
    264 : FD1B;
    265 : 01B3;
    266 : 032F;
    267 : 01D2;
    268 : 0310;
    269 : 0184;
    26A : 026B;
    26B : 070F;
    26C : 03DC;
    26D : FFD2;
    26E : FDED;
    26F : F9AF;
    270 : F22C;
    271 : F059;
    272 : F217;
    273 : F41E;
    274 : F93D;
    275 : 02FD;
    276 : 0B5A;
    277 : 0A23;
    278 : 0DE9;
    279 : 0D77;
    27A : 0F71;
    27B : 103B;
    27C : 0B60;
    27D : 0C7A;
    27E : 0CC3;
    27F : 0D13;
    280 : 0686;
    281 : 0700;
    282 : 06E6;
    283 : 007C;
    284 : FF06;
    285 : 0022;
    286 : FBC1;
    287 : F606;
    288 : F772;
    289 : F841;
    28A : F7C8;
    28B : F810;
    28C : 00DF;
    28D : FDD5;
    28E : F5A0;
    28F : F9F2;
    290 : F9BA;
    291 : FCC8;
    292 : 0483;
    293 : 0F2F;
    294 : 102E;
    295 : 0BE8;
    296 : 070F;
    297 : 068E;
    298 : FE9A;
    299 : FDE5;
    29A : 07AB;
    29B : 02D5;
    29C : FEE7;
    29D : FD97;
    29E : FBDA;
    29F : F5C7;
    2A0 : F3A6;
    2A1 : F7DC;
    2A2 : F78D;
    2A3 : F467;
    2A4 : F7B4;
    2A5 : FB14;
    2A6 : F6E8;
    2A7 : FBE5;
    2A8 : FFA9;
    2A9 : 0185;
    2AA : FF62;
    2AB : 03A9;
    2AC : 0A58;
    2AD : 0A6A;
    2AE : 10A4;
    2AF : 10F0;
    2B0 : 1983;
    2B1 : 1E55;
    2B2 : 1974;
    2B3 : 1355;
    2B4 : 0D66;
    2B5 : 05DE;
    2B6 : FC69;
    2B7 : FAEB;
    2B8 : FD12;
    2B9 : FD6D;
    2BA : FFD1;
    2BB : 080C;
    2BC : 08FA;
    2BD : 06AB;
    2BE : 0985;
    2BF : 09EA;
    2C0 : 0C2E;
    2C1 : 1180;
    2C2 : 0BB4;
    2C3 : 0952;
    2C4 : 0A3F;
    2C5 : 0792;
    2C6 : 09EB;
    2C7 : 0B45;
    2C8 : 0ACD;
    2C9 : 0A9B;
    2CA : 0A22;
    2CB : 0B8B;
    2CC : 10C1;
    2CD : 16FC;
    2CE : 1D2D;
    2CF : 1622;
    2D0 : 0A37;
    2D1 : 054C;
    2D2 : 09BA;
    2D3 : 0595;
    2D4 : 07BC;
    2D5 : 0E27;
    2D6 : 0C8F;
    2D7 : 0BE2;
    2D8 : 0A0C;
    2D9 : 114B;
    2DA : 0EB5;
    2DB : 0E0B;
    2DC : 0F6B;
    2DD : 11BB;
    2DE : 16C0;
    2DF : 16EA;
    2E0 : 1B7D;
    2E1 : 265A;
    2E2 : 2E62;
    2E3 : 2F27;
    2E4 : 2F1C;
    2E5 : 32C0;
    2E6 : 3215;
    2E7 : 31F5;
    2E8 : 3563;
    2E9 : 366C;
    2EA : 30E7;
    2EB : 2E05;
    2EC : 2DA3;
    2ED : 3063;
    2EE : 354E;
    2EF : 36F3;
    2F0 : 370D;
    2F1 : 3295;
    2F2 : 3309;
    2F3 : 32BC;
    2F4 : 340C;
    2F5 : 3894;
    2F6 : 43F5;
    2F7 : 4888;
    2F8 : 4B5C;
    2F9 : 501E;
    2FA : 4E2E;
    2FB : 48E6;
    2FC : 48AF;
    2FD : 41D1;
    2FE : 41E9;
    2FF : 4256;
    300 : 3A01;
    301 : 3AC0;
    302 : 3B76;
    303 : 3BD4;
    304 : 37F2;
    305 : 31EB;
    306 : 2F72;
    307 : 2D14;
    308 : 2676;
    309 : 2591;
    30A : 278C;
    30B : 2B37;
    30C : 3132;
    30D : 35C1;
    30E : 3495;
    30F : 3335;
    310 : 2C79;
    311 : 29DD;
    312 : 2FE8;
    313 : 3775;
    314 : 381D;
    315 : 350F;
    316 : 2F4D;
    317 : 23A4;
    318 : 24A1;
    319 : 1BB7;
    31A : 0C56;
    31B : 059C;
    31C : 05B3;
    31D : 0C18;
    31E : 06CD;
    31F : FF0C;
    320 : FF87;
    321 : FB76;
    322 : F3D9;
    323 : F9B0;
    324 : FAE1;
    325 : 0238;
    326 : 0274;
    327 : FFFF;
    328 : FBDD;
    329 : F665;
    32A : F0F5;
    32B : EE7C;
    32C : ED88;
    32D : F1D4;
    32E : F9C7;
    32F : FA98;
    330 : F07F;
    331 : E839;
    332 : F23D;
    333 : F764;
    334 : FBE8;
    335 : FB0A;
    336 : F45C;
    337 : ED3E;
    338 : E91F;
    339 : E5F7;
    33A : E545;
    33B : E2EB;
    33C : E101;
    33D : E3A6;
    33E : EA22;
    33F : EBA2;
    340 : EFFC;
    341 : F252;
    342 : F39C;
    343 : F3E7;
    344 : F8E9;
    345 : FB49;
    346 : F6FA;
    347 : F78E;
    348 : F915;
    349 : FD14;
    34A : FB51;
    34B : F8DB;
    34C : FA16;
    34D : F926;
    34E : F7F3;
    34F : F73A;
    350 : F9C0;
    351 : 010E;
    352 : 097E;
    353 : 0371;
    354 : FBF4;
    355 : FBD8;
    356 : FE06;
    357 : FE33;
    358 : FF9D;
    359 : 05CB;
    35A : 06D3;
    35B : 0A23;
    35C : 10BE;
    35D : 1730;
    35E : 1C0F;
    35F : 1664;
    360 : 1245;
    361 : 137A;
    362 : 122B;
    363 : 183E;
    364 : 183D;
    365 : 1619;
    366 : 173A;
    367 : 0DD0;
    368 : 052B;
    369 : F982;
    36A : F7B0;
    36B : FCFC;
    36C : FB62;
    36D : FCDC;
    36E : FC9E;
    36F : F719;
    370 : F474;
    371 : F246;
    372 : EA3F;
    373 : E837;
    374 : EE3A;
    375 : F81B;
    376 : F16C;
    377 : EDA4;
    378 : FA10;
    379 : FDA9;
    37A : FA0F;
    37B : F84E;
    37C : F63E;
    37D : F995;
    37E : F509;
    37F : EF25;
    380 : E9E3;
    381 : DAD2;
    382 : D072;
    383 : C7C0;
    384 : C657;
    385 : C735;
    386 : CA5F;
    387 : CCC8;
    388 : CD11;
    389 : D0CA;
    38A : CF33;
    38B : D18A;
    38C : D675;
    38D : DEAA;
    38E : E318;
    38F : DC91;
    390 : CC06;
    391 : C9EC;
    392 : D015;
    393 : CD14;
    394 : D072;
    395 : D876;
    396 : E090;
    397 : E857;
    398 : EAD8;
    399 : EA3F;
    39A : ED90;
    39B : E196;
    39C : CC1A;
    39D : C08B;
    39E : BB4C;
    39F : BD92;
    3A0 : BC8C;
    3A1 : C0A3;
    3A2 : C85A;
    3A3 : CBBD;
    3A4 : CA79;
    3A5 : CEAD;
    3A6 : D126;
    3A7 : CFF5;
    3A8 : D26F;
    3A9 : D2A8;
    3AA : D15C;
    3AB : C7E4;
    3AC : CA58;
    3AD : D486;
    3AE : DBC0;
    3AF : D5B5;
    3B0 : D480;
    3B1 : CFCA;
    3B2 : D05C;
    3B3 : D643;
    3B4 : DAAA;
    3B5 : DD88;
    3B6 : DE5E;
    3B7 : DDA8;
    3B8 : DB6B;
    3B9 : DA4C;
    3BA : DB3E;
    3BB : D8A8;
    3BC : D6A9;
    3BD : D987;
    3BE : DC0A;
    3BF : DCAF;
    3C0 : DD3F;
    3C1 : E17F;
    3C2 : E491;
    3C3 : F025;
    3C4 : F1E5;
    3C5 : EC11;
    3C6 : EE2F;
    3C7 : F189;
    3C8 : F611;
    3C9 : FF6D;
    3CA : 0243;
    3CB : 0000;
    3CC : FAD6;
    3CD : F2DB;
    3CE : F578;
    3CF : FDE2;
    3D0 : FE2E;
    3D1 : F81A;
    3D2 : F368;
    3D3 : F254;
    3D4 : F528;
    3D5 : F986;
    3D6 : F732;
    3D7 : F507;
    3D8 : F554;
    3D9 : F929;
    3DA : FCF5;
    3DB : FC2F;
    3DC : 066F;
    3DD : 0C9D;
    3DE : 0105;
    3DF : 0533;
    3E0 : 0C84;
    3E1 : 0B94;
    3E2 : 0BEC;
    3E3 : 185D;
    3E4 : 1A8A;
    3E5 : 0B34;
    3E6 : 084A;
    3E7 : 0BC4;
    3E8 : 054C;
    3E9 : F8D7;
    3EA : ED55;
    3EB : DC92;
    3EC : D77A;
    3ED : DDC2;
    3EE : EABF;
    3EF : F734;
    3F0 : FC43;
    3F1 : FE02;
    3F2 : 024F;
    3F3 : 00C9;
    3F4 : 00F9;
    3F5 : FE73;
    3F6 : F420;
    3F7 : EA17;
    3F8 : E31D;
    3F9 : E7CA;
    3FA : F880;
    3FB : FD17;
    3FC : 013E;
    3FD : 09ED;
    3FE : 0877;
    3FF : 0736;
    400 : 049C;
    401 : FCC6;
    402 : FBE7;
    403 : 02D7;
    404 : 01C2;
    405 : FC69;
    406 : FB95;
    407 : F569;
    408 : F011;
    409 : F401;
    40A : F15E;
    40B : F0E1;
    40C : EDC0;
    40D : F00B;
    40E : F055;
    40F : F9BC;
    410 : FDC9;
    411 : FE67;
    412 : FC1A;
    413 : FB04;
    414 : FBF4;
    415 : FBE9;
    416 : 00A8;
    417 : 0386;
    418 : 03EC;
    419 : 01AF;
    41A : 0507;
    41B : 0E21;
    41C : 0E7F;
    41D : 07B4;
    41E : 08B1;
    41F : 095C;
    420 : 07D2;
    421 : 0AAD;
    422 : 0FB5;
    423 : 1115;
    424 : 092C;
    425 : 0512;
    426 : 0DF4;
    427 : 133D;
    428 : 18EC;
    429 : 1614;
    42A : 1612;
    42B : 1A7B;
    42C : 1EDA;
    42D : 2042;
    42E : 1B22;
    42F : 1387;
    430 : 155A;
    431 : 144D;
    432 : 1196;
    433 : 1333;
    434 : 19A0;
    435 : 12E5;
    436 : 0061;
    437 : F835;
    438 : FC11;
    439 : FED7;
    43A : 07E6;
    43B : 09D6;
    43C : 0AE6;
    43D : 0ECC;
    43E : 0F4D;
    43F : 0729;
    440 : 0B7A;
    441 : 0EC1;
    442 : 0B9F;
    443 : 1036;
    444 : 170A;
    445 : 1F70;
    446 : 23EC;
    447 : 222E;
    448 : 2275;
    449 : 2E63;
    44A : 3787;
    44B : 35FA;
    44C : 34C5;
    44D : 2AA5;
    44E : 25E6;
    44F : 2E79;
    450 : 2546;
    451 : 1DE2;
    452 : 19C5;
    453 : 1724;
    454 : 1598;
    455 : 1B6F;
    456 : 2637;
    457 : 38FA;
    458 : 3462;
    459 : 2BBE;
    45A : 25E8;
    45B : 1F2E;
    45C : 16F6;
    45D : 148F;
    45E : 169F;
    45F : 1B50;
    460 : 1A77;
    461 : 1BD7;
    462 : 272E;
    463 : 2878;
    464 : 27B9;
    465 : 280F;
    466 : 2791;
    467 : 278D;
    468 : 2547;
    469 : 23DB;
    46A : 211C;
    46B : 1CC9;
    46C : 1DF6;
    46D : 1E14;
    46E : 1ABB;
    46F : 22D6;
    470 : 2483;
    471 : 1D0C;
    472 : 1F54;
    473 : 1E68;
    474 : 2289;
    475 : 2637;
    476 : 260F;
    477 : 22B6;
    478 : 239B;
    479 : 21F6;
    47A : 22BE;
    47B : 29DE;
    47C : 270E;
    47D : 20CB;
    47E : 1F26;
    47F : 2270;
    480 : 254C;
    481 : 253B;
    482 : 2529;
    483 : 240A;
    484 : 2792;
    485 : 2915;
    486 : 2307;
    487 : 2067;
    488 : 240D;
    489 : 297B;
    48A : 2DDB;
    48B : 2A38;
    48C : 28E2;
    48D : 2AA8;
    48E : 2FB0;
    48F : 2D8B;
    490 : 296B;
    491 : 2B19;
    492 : 290B;
    493 : 27EB;
    494 : 2F33;
    495 : 3526;
    496 : 338B;
    497 : 33F0;
    498 : 3398;
    499 : 27E7;
    49A : 22DF;
    49B : 2077;
    49C : 204E;
    49D : 2328;
    49E : 219B;
    49F : 1CBC;
    4A0 : 0FB0;
    4A1 : 0BC6;
    4A2 : 14D4;
    4A3 : 19C9;
    4A4 : 1CEE;
    4A5 : 214B;
    4A6 : 1DB2;
    4A7 : 1F29;
    4A8 : 2089;
    4A9 : 1BE0;
    4AA : 210A;
    4AB : 23F3;
    4AC : 2284;
    4AD : 1A58;
    4AE : 1AA9;
    4AF : 2216;
    4B0 : 260A;
    4B1 : 253D;
    4B2 : 1E63;
    4B3 : 1672;
    4B4 : 0D8F;
    4B5 : 0106;
    4B6 : EEC8;
    4B7 : EA15;
    4B8 : EEB6;
    4B9 : EF17;
    4BA : F9EF;
    4BB : 0632;
    4BC : 00CD;
    4BD : FF4F;
    4BE : 002E;
    4BF : F8E8;
    4C0 : F1E9;
    4C1 : F75B;
    4C2 : F4E9;
    4C3 : EDD1;
    4C4 : E5E4;
    4C5 : E923;
    4C6 : E90A;
    4C7 : E562;
    4C8 : E692;
    4C9 : E909;
    4CA : E826;
    4CB : EB4E;
    4CC : EE26;
    4CD : EFDA;
    4CE : EECD;
    4CF : E6A2;
    4D0 : E7C6;
    4D1 : E6C5;
    4D2 : DFE1;
    4D3 : DB1E;
    4D4 : DE4E;
    4D5 : E4CE;
    4D6 : E460;
    4D7 : DF08;
    4D8 : D73B;
    4D9 : D187;
    4DA : D59B;
    4DB : DCF5;
    4DC : E125;
    4DD : E457;
    4DE : E812;
    4DF : E889;
    4E0 : ED33;
    4E1 : EF0E;
    4E2 : F40E;
    4E3 : F751;
    4E4 : F568;
    4E5 : F546;
    4E6 : F392;
    4E7 : EE02;
    4E8 : ED9F;
    4E9 : F19B;
    4EA : F4BA;
    4EB : F439;
    4EC : F185;
    4ED : F615;
    4EE : F792;
    4EF : FB00;
    4F0 : 021D;
    4F1 : 0353;
    4F2 : 011E;
    4F3 : F492;
    4F4 : F2EB;
    4F5 : F963;
    4F6 : 0087;
    4F7 : 02C2;
    4F8 : FFA9;
    4F9 : FBC3;
    4FA : FA5D;
    4FB : FC77;
    4FC : F91F;
    4FD : F386;
    4FE : F7EB;
    4FF : F81B;
    500 : F8B1;
    501 : F82D;
    502 : FC8F;
    503 : FCAC;
    504 : F255;
    505 : E75D;
    506 : E4D8;
    507 : EA3B;
    508 : E95A;
    509 : E65D;
    50A : E6E4;
    50B : EDC4;
    50C : F166;
    50D : F579;
    50E : F121;
    50F : F31F;
    510 : EB3C;
    511 : E8BE;
    512 : EDCB;
    513 : F8B0;
    514 : 0368;
    515 : 05F8;
    516 : FE5F;
    517 : EE8C;
    518 : E0F3;
    519 : D904;
    51A : DE52;
    51B : E15E;
    51C : DC79;
    51D : CF9A;
    51E : CA2D;
    51F : CA3D;
    520 : D5CF;
    521 : E1F5;
    522 : E973;
    523 : E976;
    524 : E182;
    525 : E523;
    526 : E794;
    527 : E460;
    528 : E804;
    529 : E935;
    52A : E092;
    52B : DB3A;
    52C : DD5A;
    52D : E488;
    52E : EC56;
    52F : F2D5;
    530 : F4A0;
    531 : EFE4;
    532 : E428;
    533 : E01E;
    534 : DD2C;
    535 : E160;
    536 : E3E7;
    537 : E9A5;
    538 : EE33;
    539 : E4DC;
    53A : E10F;
    53B : DF3E;
    53C : DD51;
    53D : DE2D;
    53E : DC08;
    53F : D671;
    540 : D366;
    541 : D6A4;
    542 : D729;
    543 : D53B;
    544 : D3B3;
    545 : D848;
    546 : DA15;
    547 : D362;
    548 : D459;
    549 : D820;
    54A : DB78;
    54B : DA38;
    54C : DBA6;
    54D : DF9B;
    54E : DAE1;
    54F : D895;
    550 : DEDC;
    551 : E45C;
    552 : E447;
    553 : E76E;
    554 : ED51;
    555 : F1A5;
    556 : F600;
    557 : F3F9;
    558 : EEF3;
    559 : EFDA;
    55A : F592;
    55B : F851;
    55C : FC21;
    55D : 00EA;
    55E : 039E;
    55F : 007B;
    560 : FC2A;
    561 : FD1C;
    562 : 01AF;
    563 : 025F;
    564 : 010A;
    565 : FE0A;
    566 : 0683;
    567 : 0DD7;
    568 : 0AC7;
    569 : 02A8;
    56A : FE27;
    56B : 0149;
    56C : FFD9;
    56D : FAD3;
    56E : F767;
    56F : F443;
    570 : F442;
    571 : F609;
    572 : FB54;
    573 : FCB3;
    574 : FC4F;
    575 : FB9A;
    576 : FFE6;
    577 : 0543;
    578 : 0750;
    579 : 099B;
    57A : 07A2;
    57B : 0808;
    57C : 0681;
    57D : 095F;
    57E : 0D0E;
    57F : 0838;
    580 : 067E;
    581 : 0837;
    582 : 0880;
    583 : 04C9;
    584 : FC55;
    585 : F8DB;
    586 : FB7F;
    587 : FAB9;
    588 : FC22;
    589 : 04C3;
    58A : 0596;
    58B : 00EE;
    58C : FEA8;
    58D : FE51;
    58E : FF62;
    58F : FAD8;
    590 : FC58;
    591 : FF5F;
    592 : FD82;
    593 : FFC0;
    594 : 04B0;
    595 : 0801;
    596 : 071D;
    597 : 0103;
    598 : FEF1;
    599 : 03B9;
    59A : 0690;
    59B : 0707;
    59C : 051E;
    59D : 0AB0;
    59E : 0855;
    59F : 02FE;
    5A0 : FFCC;
    5A1 : 00FE;
    5A2 : FCB8;
    5A3 : F561;
    5A4 : F1A7;
    5A5 : F338;
    5A6 : F4CB;
    5A7 : F99C;
    5A8 : F890;
    5A9 : FB4C;
    5AA : 0179;
    5AB : 0745;
    5AC : 0F08;
    5AD : 13C4;
    5AE : 0F1D;
    5AF : 0A3C;
    5B0 : 041B;
    5B1 : 05A7;
    5B2 : 0772;
    5B3 : 0E42;
    5B4 : 1083;
    5B5 : 13CA;
    5B6 : 1AAF;
    5B7 : 224A;
    5B8 : 27DC;
    5B9 : 217C;
    5BA : 1E9A;
    5BB : 18DF;
    5BC : 15D7;
    5BD : 170F;
    5BE : 1617;
    5BF : 1B12;
    5C0 : 2648;
    5C1 : 2AE2;
    5C2 : 2962;
    5C3 : 21BA;
    5C4 : 1E75;
    5C5 : 1A93;
    5C6 : 23B7;
    5C7 : 23B4;
    5C8 : 1E95;
    5C9 : 19F5;
    5CA : 13E4;
    5CB : 1795;
    5CC : 1D83;
    5CD : 1BB5;
    5CE : 1C53;
    5CF : 1CF3;
    5D0 : 1736;
    5D1 : 0F98;
    5D2 : 0C26;
    5D3 : 0C39;
    5D4 : 0997;
    5D5 : 015A;
    5D6 : 031E;
    5D7 : 078F;
    5D8 : 0EE3;
    5D9 : 109E;
    5DA : 0CF6;
    5DB : 02E6;
    5DC : 051C;
    5DD : 0A29;
    5DE : 0DD0;
    5DF : 0E6B;
    5E0 : 0F92;
    5E1 : 138D;
    5E2 : 1EF6;
    5E3 : 22C9;
    5E4 : 1EA4;
    5E5 : 1938;
    5E6 : 172D;
    5E7 : 1DE2;
    5E8 : 1B75;
    5E9 : 15D0;
    5EA : 0D9B;
    5EB : 139D;
    5EC : 141B;
    5ED : 110A;
    5EE : 11E0;
    5EF : 1203;
    5F0 : 0E8A;
    5F1 : 1028;
    5F2 : 0CD9;
    5F3 : 0CBC;
    5F4 : 0E5F;
    5F5 : 1805;
    5F6 : 1C89;
    5F7 : 182E;
    5F8 : 111D;
    5F9 : 0A81;
    5FA : 0D3E;
    5FB : 0A4F;
    5FC : 0A94;
    5FD : 113D;
    5FE : 1359;
    5FF : 11F4;
    600 : 1169;
    601 : 0FB1;
    602 : 118E;
    603 : 1577;
    604 : 1F6B;
    605 : 21F1;
    606 : 164C;
    607 : 0F1A;
    608 : 0A11;
    609 : 08A2;
    60A : 0219;
    60B : 07BC;
    60C : 08E3;
    60D : 0798;
    60E : 092F;
    60F : 0D32;
    610 : 0F87;
    611 : 12A5;
    612 : 1243;
    613 : 0FC2;
    614 : 0EDE;
    615 : 0B09;
    616 : 050B;
    617 : 0D06;
    618 : 1B0C;
    619 : 1C72;
    61A : 157C;
    61B : 0C5D;
    61C : 13AC;
    61D : 170E;
    61E : 1DD1;
    61F : 23BA;
    620 : 2512;
    621 : 2238;
    622 : 1FA1;
    623 : 23DC;
    624 : 2B5F;
    625 : 2EAA;
    626 : 3070;
    627 : 2DBC;
    628 : 2F15;
    629 : 34CA;
    62A : 36F9;
    62B : 3392;
    62C : 2B6F;
    62D : 2197;
    62E : 2069;
    62F : 20CC;
    630 : 1CAB;
    631 : 2505;
    632 : 26C7;
    633 : 25CB;
    634 : 286B;
    635 : 24A7;
    636 : 24A5;
    637 : 235D;
    638 : 1D6E;
    639 : 1525;
    63A : 14C3;
    63B : 1334;
    63C : 0BDD;
    63D : 0BF7;
    63E : 13BD;
    63F : 1406;
    640 : 0F23;
    641 : 0F1B;
    642 : 0CD7;
    643 : 0B77;
    644 : 1103;
    645 : 13C6;
    646 : 1343;
    647 : 119B;
    648 : 1844;
    649 : 1719;
    64A : 1541;
    64B : 0B1F;
    64C : 06A2;
    64D : 08F2;
    64E : 0D3F;
    64F : 0F20;
    650 : 0C85;
    651 : 0C81;
    652 : FFD8;
    653 : EF3C;
    654 : EB12;
    655 : ED30;
    656 : F3E6;
    657 : 009B;
    658 : 06CA;
    659 : 0321;
    65A : F7E3;
    65B : F778;
    65C : FA73;
    65D : 01C8;
    65E : FE60;
    65F : F3F2;
    660 : F037;
    661 : F45F;
    662 : F885;
    663 : FB4C;
    664 : F8A6;
    665 : F37D;
    666 : F18C;
    667 : F3DC;
    668 : F365;
    669 : F344;
    66A : F972;
    66B : 0027;
    66C : 02B9;
    66D : FB36;
    66E : ECF2;
    66F : EB11;
    670 : E77A;
    671 : E223;
    672 : E579;
    673 : EA7E;
    674 : EF52;
    675 : F402;
    676 : F54C;
    677 : EEE1;
    678 : EA54;
    679 : F4D0;
    67A : FF77;
    67B : 04BA;
    67C : 0502;
    67D : 0517;
    67E : 016F;
    67F : F8DC;
    680 : F9C7;
    681 : F5FF;
    682 : F7FF;
    683 : 0557;
    684 : 0A3A;
    685 : 0BED;
    686 : 0B88;
    687 : 0C72;
    688 : 0DE7;
    689 : 0A58;
    68A : 0B31;
    68B : 0F49;
    68C : 13EA;
    68D : 1762;
    68E : 1D9E;
    68F : 2011;
    690 : 1B0B;
    691 : 14F8;
    692 : 0A00;
    693 : 0325;
    694 : 0102;
    695 : 042C;
    696 : 0E9D;
    697 : 0E51;
    698 : 06C3;
    699 : 0974;
    69A : 0918;
    69B : 097C;
    69C : 084B;
    69D : FF14;
    69E : FE27;
    69F : FBCD;
    6A0 : F42A;
    6A1 : F09D;
    6A2 : F23D;
    6A3 : EE55;
    6A4 : E963;
    6A5 : E77E;
    6A6 : E988;
    6A7 : EE94;
    6A8 : F4CA;
    6A9 : FB45;
    6AA : FC3E;
    6AB : F39A;
    6AC : EEA3;
    6AD : EA8F;
    6AE : F126;
    6AF : F3AD;
    6B0 : E5D4;
    6B1 : E4D6;
    6B2 : E4F9;
    6B3 : E3A9;
    6B4 : E40B;
    6B5 : E29F;
    6B6 : DA0F;
    6B7 : D22C;
    6B8 : D3F6;
    6B9 : D773;
    6BA : DA64;
    6BB : DB65;
    6BC : DD62;
    6BD : E263;
    6BE : DED7;
    6BF : DF0F;
    6C0 : E4AC;
    6C1 : E0AF;
    6C2 : DE60;
    6C3 : D8DC;
    6C4 : D68B;
    6C5 : D7CE;
    6C6 : E158;
    6C7 : E7CE;
    6C8 : E54A;
    6C9 : DD9B;
    6CA : D221;
    6CB : CABA;
    6CC : C6AB;
    6CD : C84F;
    6CE : C925;
    6CF : C9BE;
    6D0 : CAF1;
    6D1 : CC60;
    6D2 : CB0A;
    6D3 : D01A;
    6D4 : D12D;
    6D5 : D07C;
    6D6 : C676;
    6D7 : BEA2;
    6D8 : BD7B;
    6D9 : B751;
    6DA : B481;
    6DB : B91A;
    6DC : C006;
    6DD : C283;
    6DE : C906;
    6DF : CD9C;
    6E0 : CD45;
    6E1 : CBB0;
    6E2 : C905;
    6E3 : C9D3;
    6E4 : CAAC;
    6E5 : CCB5;
    6E6 : D335;
    6E7 : D9E5;
    6E8 : DE25;
    6E9 : DCF9;
    6EA : DC88;
    6EB : DC9D;
    6EC : DFC6;
    6ED : E373;
    6EE : E5BE;
    6EF : E8E0;
    6F0 : ECA2;
    6F1 : F39C;
    6F2 : FBDE;
    6F3 : 0311;
    6F4 : FE91;
    6F5 : FA01;
    6F6 : F3FF;
    6F7 : F551;
    6F8 : F9A1;
    6F9 : FBF4;
    6FA : FD41;
    6FB : F61D;
    6FC : F531;
    6FD : FBA6;
    6FE : FCB0;
    6FF : FDF3;
    700 : 006A;
    701 : 0129;
    702 : 006F;
    703 : 02BE;
    704 : 036F;
    705 : 031C;
    706 : FFF2;
    707 : FAE7;
    708 : F245;
    709 : EAA3;
    70A : EB34;
    70B : E831;
    70C : ECAD;
    70D : F84B;
    70E : FFBC;
    70F : FDB6;
    710 : 0211;
    711 : 029C;
    712 : 0325;
    713 : 0442;
    714 : FE78;
    715 : FCDB;
    716 : FC4A;
    717 : FBE2;
    718 : FB2C;
    719 : FF8F;
    71A : 00C0;
    71B : FA79;
    71C : F6C9;
    71D : F219;
    71E : F665;
    71F : F9BC;
    720 : FB5B;
    721 : 0029;
    722 : 0084;
    723 : FB04;
    724 : F946;
    725 : F1D6;
    726 : E901;
    727 : EC0C;
    728 : F648;
    729 : FA8C;
    72A : FC2F;
    72B : 0189;
    72C : FF19;
    72D : 0300;
    72E : 082D;
    72F : 05D8;
    730 : FDED;
    731 : 0194;
    732 : 0349;
    733 : F817;
    734 : F318;
    735 : F530;
    736 : F7FA;
    737 : 0483;
    738 : 14B3;
    739 : 1A2B;
    73A : 0A5C;
    73B : FD43;
    73C : F4FC;
    73D : F0BE;
    73E : F68B;
    73F : FDA6;
    740 : FECB;
    741 : FC9D;
    742 : FEBA;
    743 : FE6E;
    744 : 033B;
    745 : 0360;
    746 : FE64;
    747 : F9A4;
    748 : 0171;
    749 : 0FF1;
    74A : 182F;
    74B : 213C;
    74C : 20FC;
    74D : 1FD5;
    74E : 1A9E;
    74F : 17D7;
    750 : 1A5D;
    751 : 2828;
    752 : 2DB5;
    753 : 26E6;
    754 : 2847;
    755 : 2486;
    756 : 1F5B;
    757 : 200E;
    758 : 24F0;
    759 : 2682;
    75A : 25AD;
    75B : 2F24;
    75C : 388A;
    75D : 3599;
    75E : 3664;
    75F : 3515;
    760 : 29C0;
    761 : 2681;
    762 : 2247;
    763 : 1F00;
    764 : 1D40;
    765 : 1799;
    766 : 1BFA;
    767 : 1D92;
    768 : 1FD1;
    769 : 1D45;
    76A : 125E;
    76B : 132E;
    76C : 2045;
    76D : 29BB;
    76E : 23AE;
    76F : 158F;
    770 : 0D36;
    771 : 0EF5;
    772 : 1285;
    773 : 137C;
    774 : 14BA;
    775 : 15AF;
    776 : 17FE;
    777 : 1D71;
    778 : 2387;
    779 : 1E6F;
    77A : 199F;
    77B : 1A80;
    77C : 19AC;
    77D : 220D;
    77E : 224B;
    77F : 1A03;
    780 : 0F0F;
    781 : 0CAC;
    782 : 10EF;
    783 : 1CA3;
    784 : 241D;
    785 : 2236;
    786 : 1FDF;
    787 : 1726;
    788 : 185A;
    789 : 1D69;
    78A : 1B19;
    78B : 1519;
    78C : 077E;
    78D : 02EB;
    78E : 0A05;
    78F : 1061;
    790 : 1950;
    791 : 1DDC;
    792 : 227B;
    793 : 2235;
    794 : 19F0;
    795 : 1900;
    796 : 199D;
    797 : 1293;
    798 : 1394;
    799 : 146B;
    79A : 154F;
    79B : 11C1;
    79C : 0F1B;
    79D : 0FBA;
    79E : 13DC;
    79F : 1298;
    7A0 : 0962;
    7A1 : 054F;
    7A2 : 0AEC;
    7A3 : 0FA7;
    7A4 : 122A;
    7A5 : 0ED7;
    7A6 : 0722;
    7A7 : 0A2D;
    7A8 : 0D7D;
    7A9 : 0E0C;
    7AA : 0EC7;
    7AB : 0E0F;
    7AC : 0E0A;
    7AD : 0F14;
    7AE : 0FBC;
    7AF : 1526;
    7B0 : 1B1B;
    7B1 : 17FB;
    7B2 : 12EE;
    7B3 : 11A5;
    7B4 : 1405;
    7B5 : 1DCE;
    7B6 : 1AA4;
    7B7 : 27BC;
    7B8 : 2E8E;
    7B9 : 2AB0;
    7BA : 2B16;
    7BB : 28B7;
    7BC : 2902;
    7BD : 298A;
    7BE : 3088;
    7BF : 3373;
    7C0 : 33A4;
    7C1 : 33BE;
    7C2 : 36B9;
    7C3 : 3D7F;
    7C4 : 382E;
    7C5 : 3457;
    7C6 : 2C06;
    7C7 : 249C;
    7C8 : 29C2;
    7C9 : 2A3E;
    7CA : 2755;
    7CB : 20C0;
    7CC : 2264;
    7CD : 2544;
    7CE : 26DF;
    7CF : 2CE8;
    7D0 : 367B;
    7D1 : 34D6;
    7D2 : 2D17;
    7D3 : 2922;
    7D4 : 291E;
    7D5 : 2700;
    7D6 : 1C9E;
    7D7 : 0E8A;
    7D8 : 10EE;
    7D9 : 10EF;
    7DA : 1056;
    7DB : 16DC;
    7DC : 1BEE;
    7DD : 2701;
    7DE : 22E8;
    7DF : 1B41;
    7E0 : 0F4E;
    7E1 : 0BCB;
    7E2 : 1992;
    7E3 : 1A58;
    7E4 : 1828;
    7E5 : 0B6C;
    7E6 : 0221;
    7E7 : 09F4;
    7E8 : 0B77;
    7E9 : 0833;
    7EA : 025C;
    7EB : FC64;
    7EC : FB51;
    7ED : F9FC;
    7EE : F59A;
    7EF : EF45;
    7F0 : ED10;
    7F1 : EC2A;
    7F2 : E80C;
    7F3 : E94B;
    7F4 : ED3E;
    7F5 : F2A8;
    7F6 : F888;
    7F7 : F749;
    7F8 : EF34;
    7F9 : EB07;
    7FA : E669;
    7FB : E516;
    7FC : E7AF;
    7FD : EC75;
    7FE : EC7E;
    7FF : E9D6;
    800 : E7DA;
    801 : E7B7;
    802 : E63D;
    803 : EB81;
    804 : EED5;
    805 : EB85;
    806 : EDC6;
    807 : EF6F;
    808 : F686;
    809 : F872;
    80A : F107;
    80B : EAE7;
    80C : EA05;
    80D : EAA4;
    80E : EE2A;
    80F : F5F0;
    810 : F5B9;
    811 : EA2D;
    812 : E154;
    813 : E137;
    814 : E2D7;
    815 : E713;
    816 : EBCE;
    817 : F170;
    818 : F839;
    819 : FE6E;
    81A : FB6A;
    81B : FA59;
    81C : FB11;
    81D : F3E9;
    81E : F128;
    81F : F3B0;
    820 : F6C4;
    821 : FB0E;
    822 : F9E9;
    823 : F8C0;
    824 : FA4A;
    825 : FF22;
    826 : 0160;
    827 : 0399;
    828 : 05B7;
    829 : 088B;
    82A : 052C;
    82B : F7D9;
    82C : EE33;
    82D : EC03;
    82E : EDD8;
    82F : EFF3;
    830 : F243;
    831 : EF64;
    832 : F17E;
    833 : F674;
    834 : FB62;
    835 : F9BA;
    836 : F6DA;
    837 : F21C;
    838 : EC8D;
    839 : E6B3;
    83A : E690;
    83B : E380;
    83C : E242;
    83D : E4B0;
    83E : E4F9;
    83F : E6EB;
    840 : E5D3;
    841 : E2AD;
    842 : E7E1;
    843 : EAC4;
    844 : E952;
    845 : E6E3;
    846 : E137;
    847 : DEE2;
    848 : E90A;
    849 : E784;
    84A : DF94;
    84B : E01F;
    84C : DC62;
    84D : D51C;
    84E : D3B0;
    84F : D555;
    850 : D5B9;
    851 : D832;
    852 : D702;
    853 : DA08;
    854 : D939;
    855 : D786;
    856 : D7A3;
    857 : DF08;
    858 : E0D5;
    859 : E497;
    85A : E2A6;
    85B : E267;
    85C : E40A;
    85D : E7D2;
    85E : ECB5;
    85F : E88D;
    860 : E6C2;
    861 : E14F;
    862 : DEDB;
    863 : E032;
    864 : E4BB;
    865 : EB4D;
    866 : EE2F;
    867 : EDD3;
    868 : EAFA;
    869 : E69E;
    86A : E69E;
    86B : E9B9;
    86C : ED41;
    86D : F08A;
    86E : EF56;
    86F : EB64;
    870 : E6F8;
    871 : E7E0;
    872 : E604;
    873 : E994;
    874 : F0CA;
    875 : EB31;
    876 : DFE1;
    877 : E0B0;
    878 : E268;
    879 : E270;
    87A : DC28;
    87B : D7BA;
    87C : DCD7;
    87D : E7B2;
    87E : F2C7;
    87F : FD27;
    880 : 0539;
    881 : 0227;
    882 : 0035;
    883 : FC0F;
    884 : FAE3;
    885 : FB7A;
    886 : FEFB;
    887 : FFCB;
    888 : 030A;
    889 : 0898;
    88A : 0E35;
    88B : 0EC4;
    88C : 0F49;
    88D : 182E;
    88E : 1C3D;
    88F : 17EF;
    890 : 124F;
    891 : 1402;
    892 : 1469;
    893 : 0BEC;
    894 : 0050;
    895 : FA8B;
    896 : 00EA;
    897 : 0686;
    898 : 07F5;
    899 : 0777;
    89A : 054B;
    89B : 03EA;
    89C : 034F;
    89D : 015B;
    89E : 04E6;
    89F : 03FB;
    8A0 : 0628;
    8A1 : FDEE;
    8A2 : F21B;
    8A3 : F57B;
    8A4 : F841;
    8A5 : FCB1;
    8A6 : FD66;
    8A7 : FCD0;
    8A8 : FC84;
    8A9 : FBDC;
    8AA : FF49;
    8AB : F840;
    8AC : EEEA;
    8AD : E69F;
    8AE : E94F;
    8AF : F042;
    8B0 : F2BD;
    8B1 : F8A8;
    8B2 : F91E;
    8B3 : F8C9;
    8B4 : FA75;
    8B5 : F468;
    8B6 : EC44;
    8B7 : EEF0;
    8B8 : F5D1;
    8B9 : F980;
    8BA : FAE7;
    8BB : F79E;
    8BC : F676;
    8BD : FBD3;
    8BE : FC3B;
    8BF : FFFA;
    8C0 : FD75;
    8C1 : F95C;
    8C2 : FACA;
    8C3 : FA60;
    8C4 : F72B;
    8C5 : F85C;
    8C6 : F658;
    8C7 : F3C1;
    8C8 : F4DF;
    8C9 : F37E;
    8CA : F2C9;
    8CB : F00D;
    8CC : F1A0;
    8CD : F818;
    8CE : F72B;
    8CF : F3EF;
    8D0 : F23D;
    8D1 : F527;
    8D2 : F086;
    8D3 : E9F4;
    8D4 : ECDA;
    8D5 : F43A;
    8D6 : F7F6;
    8D7 : FBB9;
    8D8 : 013D;
    8D9 : F995;
    8DA : F414;
    8DB : F366;
    8DC : F257;
    8DD : F1A8;
    8DE : F323;
    8DF : F225;
    8E0 : EEE7;
    8E1 : EDE2;
    8E2 : F5EE;
    8E3 : 02E2;
    8E4 : 0AB2;
    8E5 : 0CAC;
    8E6 : 067D;
    8E7 : 0524;
    8E8 : 0ADD;
    8E9 : 0B4F;
    8EA : 0A3E;
    8EB : 0275;
    8EC : FF6B;
    8ED : 0396;
    8EE : 06F1;
    8EF : 0C85;
    8F0 : 0F69;
    8F1 : 0C9F;
    8F2 : 0BCF;
    8F3 : 11EC;
    8F4 : 1BC7;
    8F5 : 1E60;
    8F6 : 149D;
    8F7 : 1262;
    8F8 : 0D5C;
    8F9 : 06B6;
    8FA : 038C;
    8FB : 02D5;
    8FC : 0388;
    8FD : 0635;
    8FE : 01AB;
    8FF : 026C;
    900 : 02E9;
    901 : 02EF;
    902 : FED0;
    903 : F6BD;
    904 : F90D;
    905 : F765;
    906 : F2F1;
    907 : F60C;
    908 : F6AA;
    909 : F12F;
    90A : EFC3;
    90B : F1A0;
    90C : F82F;
    90D : FB77;
    90E : F96B;
    90F : FB1D;
    910 : F933;
    911 : FBA1;
    912 : FEB1;
    913 : F942;
    914 : F549;
    915 : F3E0;
    916 : F990;
    917 : FC4E;
    918 : 0001;
    919 : 03F1;
    91A : 06C5;
    91B : 0A8D;
    91C : 06FE;
    91D : 0413;
    91E : 0104;
    91F : FDF5;
    920 : FDE0;
    921 : FE6F;
    922 : 0041;
    923 : 05C3;
    924 : 1127;
    925 : 09F6;
    926 : 0933;
    927 : 0DA2;
    928 : 10A8;
    929 : 11E6;
    92A : 0F78;
    92B : 0936;
    92C : 0221;
    92D : 0339;
    92E : 0F44;
    92F : 17F7;
    930 : 16C9;
    931 : 16F0;
    932 : 16F9;
    933 : 11C8;
    934 : 10A3;
    935 : 123C;
    936 : 0E51;
    937 : 0F3D;
    938 : 11B3;
    939 : 14C3;
    93A : 19D2;
    93B : 203E;
    93C : 201B;
    93D : 1D37;
    93E : 1B1A;
    93F : 1E27;
    940 : 1DE2;
    941 : 1EB6;
    942 : 2203;
    943 : 218B;
    944 : 1B95;
    945 : 1ADF;
    946 : 1FDA;
    947 : 2611;
    948 : 2867;
    949 : 290D;
    94A : 2EC6;
    94B : 341D;
    94C : 33F5;
    94D : 34F6;
    94E : 396C;
    94F : 39EE;
    950 : 3713;
    951 : 2FB6;
    952 : 2F3D;
    953 : 30DC;
    954 : 3392;
    955 : 3C09;
    956 : 40D9;
    957 : 40DA;
    958 : 4423;
    959 : 467D;
    95A : 46A8;
    95B : 43BC;
    95C : 3F75;
    95D : 3F74;
    95E : 40B2;
    95F : 4205;
    960 : 3ADF;
    961 : 3B19;
    962 : 39F9;
    963 : 3CC7;
    964 : 3B8F;
    965 : 2DD2;
    966 : 2EF5;
    967 : 3605;
    968 : 37BF;
    969 : 3799;
    96A : 330C;
    96B : 30DB;
    96C : 2CAC;
    96D : 2CA3;
    96E : 2BAE;
    96F : 2C2B;
    970 : 3051;
    971 : 30B1;
    972 : 314F;
    973 : 2B0A;
    974 : 24CB;
    975 : 2152;
    976 : 21E5;
    977 : 1E37;
    978 : 1CB1;
    979 : 1DEA;
    97A : 1D6B;
    97B : 1BB6;
    97C : 1A68;
    97D : 1CA7;
    97E : 1BCD;
    97F : 16D4;
    980 : 0CE4;
    981 : 092A;
    982 : 0370;
    983 : FE53;
    984 : FED1;
    985 : FE3F;
    986 : 0201;
    987 : 01A9;
    988 : 002F;
    989 : FE58;
    98A : FB91;
    98B : F674;
    98C : F244;
    98D : F16E;
    98E : EA85;
    98F : E702;
    990 : EB4B;
    991 : E8D7;
    992 : ED2D;
    993 : EDB6;
    994 : EC39;
    995 : EA98;
    996 : EA8D;
    997 : F06B;
    998 : F229;
    999 : EEDC;
    99A : E912;
    99B : E74E;
    99C : E141;
    99D : DFA0;
    99E : E459;
    99F : ECDB;
    9A0 : EEE6;
    9A1 : ED48;
    9A2 : ED4E;
    9A3 : EDF6;
    9A4 : EF31;
    9A5 : F0B1;
    9A6 : F0EE;
    9A7 : ECD0;
    9A8 : EA05;
    9A9 : E38C;
    9AA : E25B;
    9AB : E4EB;
    9AC : E4B1;
    9AD : E534;
    9AE : E5FE;
    9AF : E908;
    9B0 : ED9C;
    9B1 : F0F5;
    9B2 : F28D;
    9B3 : F2B4;
    9B4 : F48F;
    9B5 : F332;
    9B6 : F126;
    9B7 : F3F9;
    9B8 : F724;
    9B9 : FAD0;
    9BA : F8B1;
    9BB : F557;
    9BC : F7CC;
    9BD : FADD;
    9BE : FA63;
    9BF : FEBF;
    9C0 : 0147;
    9C1 : 0394;
    9C2 : 0409;
    9C3 : F9AD;
    9C4 : F520;
    9C5 : F937;
    9C6 : FA05;
    9C7 : F9F0;
    9C8 : FDB9;
    9C9 : 021C;
    9CA : FFAF;
    9CB : F60F;
    9CC : EF0C;
    9CD : E9E3;
    9CE : E7A9;
    9CF : ED96;
    9D0 : F632;
    9D1 : F60A;
    9D2 : F83C;
    9D3 : F66B;
    9D4 : EE7A;
    9D5 : E77E;
    9D6 : E5B0;
    9D7 : E8DE;
    9D8 : E6E3;
    9D9 : E525;
    9DA : E84A;
    9DB : E8BC;
    9DC : E757;
    9DD : ED74;
    9DE : F01F;
    9DF : EF46;
    9E0 : F00F;
    9E1 : EF25;
    9E2 : EB75;
    9E3 : E7B9;
    9E4 : E981;
    9E5 : EE1C;
    9E6 : E9A7;
    9E7 : E69B;
    9E8 : E15C;
    9E9 : DFDE;
    9EA : E3D0;
    9EB : E9E7;
    9EC : EDFA;
    9ED : EEC5;
    9EE : F047;
    9EF : EE36;
    9F0 : F1F8;
    9F1 : F478;
    9F2 : F4A8;
    9F3 : F2E0;
    9F4 : EDF1;
    9F5 : EBDC;
    9F6 : EB4C;
    9F7 : ED8D;
    9F8 : F0AE;
    9F9 : F3E2;
    9FA : F342;
    9FB : ED09;
    9FC : E74A;
    9FD : E63C;
    9FE : E6E9;
    9FF : ED93;
    A00 : EDEA;
    A01 : E5A5;
    A02 : E652;
    A03 : E436;
    A04 : DF07;
    A05 : E06A;
    A06 : E17B;
    A07 : E688;
    A08 : E720;
    A09 : E422;
    A0A : E3AF;
    A0B : DFE5;
    A0C : DA01;
    A0D : D9AD;
    A0E : DBC2;
    A0F : D5C8;
    A10 : D248;
    A11 : D3B6;
    A12 : DBCB;
    A13 : E475;
    A14 : E900;
    A15 : E4B6;
    A16 : E490;
    A17 : E697;
    A18 : E8B9;
    A19 : E6B5;
    A1A : E61D;
    A1B : E7A3;
    A1C : E8EB;
    A1D : EC32;
    A1E : ECBB;
    A1F : EE5F;
    A20 : F0BE;
    A21 : F82D;
    A22 : FC41;
    A23 : F92E;
    A24 : F553;
    A25 : F344;
    A26 : EF90;
    A27 : EEE6;
    A28 : F73C;
    A29 : FFFC;
    A2A : 0222;
    A2B : 035B;
    A2C : FEFD;
    A2D : F85C;
    A2E : F601;
    A2F : F5FD;
    A30 : F6D8;
    A31 : F231;
    A32 : ED40;
    A33 : EDD1;
    A34 : F076;
    A35 : EEB3;
    A36 : F298;
    A37 : FB5C;
    A38 : FE95;
    A39 : F53F;
    A3A : F12D;
    A3B : EC68;
    A3C : EC0B;
    A3D : F45C;
    A3E : F5CC;
    A3F : F69B;
    A40 : F430;
    A41 : F0E3;
    A42 : EE8D;
    A43 : EEFD;
    A44 : EE6C;
    A45 : F92F;
    A46 : 0077;
    A47 : FE34;
    A48 : FD9B;
    A49 : 0003;
    A4A : FF46;
    A4B : F67A;
    A4C : F141;
    A4D : F057;
    A4E : EBC8;
    A4F : E9F0;
    A50 : F319;
    A51 : F80E;
    A52 : FA8F;
    A53 : FE5C;
    A54 : F813;
    A55 : F46A;
    A56 : F47D;
    A57 : F622;
    A58 : F7CB;
    A59 : F615;
    A5A : F3ED;
    A5B : F1E1;
    A5C : F0CA;
    A5D : F116;
    A5E : F5EC;
    A5F : F84D;
    A60 : F8A4;
    A61 : FB45;
    A62 : FAC8;
    A63 : FEB5;
    A64 : 0199;
    A65 : FCC7;
    A66 : F32A;
    A67 : EC8A;
    A68 : F2C5;
    A69 : FAA3;
    A6A : FFC7;
    A6B : 040D;
    A6C : 096A;
    A6D : 0908;
    A6E : 04D6;
    A6F : 007A;
    A70 : FE17;
    A71 : FC63;
    A72 : FD12;
    A73 : FA50;
    A74 : FB50;
    A75 : FF50;
    A76 : 01DE;
    A77 : 0463;
    A78 : 0499;
    A79 : 08E4;
    A7A : 0C0F;
    A7B : 0CCB;
    A7C : 0C35;
    A7D : 143E;
    A7E : 1A37;
    A7F : 1A69;
    A80 : 1514;
    A81 : 118C;
    A82 : 12BA;
    A83 : 15CF;
    A84 : 177B;
    A85 : 17FF;
    A86 : 1627;
    A87 : 15D1;
    A88 : 165E;
    A89 : 190B;
    A8A : 1936;
    A8B : 17A9;
    A8C : 17A8;
    A8D : 183D;
    A8E : 1B98;
    A8F : 1F09;
    A90 : 2536;
    A91 : 2727;
    A92 : 24FF;
    A93 : 2245;
    A94 : 2182;
    A95 : 2141;
    A96 : 1E0F;
    A97 : 1D2A;
    A98 : 20F5;
    A99 : 2055;
    A9A : 1E54;
    A9B : 1BFC;
    A9C : 1833;
    A9D : 18A3;
    A9E : 21CC;
    A9F : 250C;
    AA0 : 2879;
    AA1 : 2AD1;
    AA2 : 2516;
    AA3 : 1B32;
    AA4 : 156C;
    AA5 : 1500;
    AA6 : 1548;
    AA7 : 133D;
    AA8 : 1447;
    AA9 : 1887;
    AAA : 1DFA;
    AAB : 205E;
    AAC : 2047;
    AAD : 2581;
    AAE : 23D4;
    AAF : 1A51;
    AB0 : 16A3;
    AB1 : 1ACC;
    AB2 : 1919;
    AB3 : 14DC;
    AB4 : 136D;
    AB5 : 15EC;
    AB6 : 1813;
    AB7 : 1A5D;
    AB8 : 2070;
    AB9 : 23E1;
    ABA : 2475;
    ABB : 2492;
    ABC : 226D;
    ABD : 236D;
    ABE : 22E8;
    ABF : 1EA0;
    AC0 : 1D9E;
    AC1 : 1E60;
    AC2 : 1EB9;
    AC3 : 2394;
    AC4 : 2890;
    AC5 : 26AC;
    AC6 : 27C0;
    AC7 : 2ABA;
    AC8 : 2B68;
    AC9 : 2E2D;
    ACA : 28D8;
    ACB : 25B7;
    ACC : 1D2F;
    ACD : 18BF;
    ACE : 1C1B;
    ACF : 1F90;
    AD0 : 20E3;
    AD1 : 21FB;
    AD2 : 20E9;
    AD3 : 218E;
    AD4 : 259B;
    AD5 : 1EF5;
    AD6 : 18C0;
    AD7 : 132B;
    AD8 : 13EF;
    AD9 : 1761;
    ADA : 1564;
    ADB : 17FC;
    ADC : 1BCA;
    ADD : 1925;
    ADE : 18F3;
    ADF : 17D7;
    AE0 : 177A;
    AE1 : 193F;
    AE2 : 1A90;
    AE3 : 1D9B;
    AE4 : 1C81;
    AE5 : 1D9E;
    AE6 : 1B4E;
    AE7 : 1B16;
    AE8 : 178F;
    AE9 : 1BB6;
    AEA : 20BC;
    AEB : 1D3B;
    AEC : 1C57;
    AED : 1C30;
    AEE : 1BB4;
    AEF : 1EFF;
    AF0 : 21B4;
    AF1 : 207A;
    AF2 : 1A88;
    AF3 : 14B1;
    AF4 : 1468;
    AF5 : 1552;
    AF6 : 1AAA;
    AF7 : 1DCC;
    AF8 : 21E6;
    AF9 : 2090;
    AFA : 1D5F;
    AFB : 1B03;
    AFC : 1557;
    AFD : 101B;
    AFE : 0D80;
    AFF : 0D37;
    B00 : 0A5C;
    B01 : 0789;
    B02 : 0C97;
    B03 : 1525;
    B04 : 1ABC;
    B05 : 1AD2;
    B06 : 17DD;
    B07 : 1178;
    B08 : 0847;
    B09 : 02C3;
    B0A : FC6F;
    B0B : F551;
    B0C : F7FF;
    B0D : FDA1;
    B0E : 023F;
    B0F : 0652;
    B10 : 0892;
    B11 : 081F;
    B12 : 078E;
    B13 : 0517;
    B14 : 00CE;
    B15 : FEC9;
    B16 : FBAD;
    B17 : F827;
    B18 : F3A1;
    B19 : F288;
    B1A : F1A9;
    B1B : EEF1;
    B1C : EC06;
    B1D : EDD3;
    B1E : F30A;
    B1F : F06E;
    B20 : ED93;
    B21 : ECE6;
    B22 : EBB9;
    B23 : E6F6;
    B24 : DDD4;
    B25 : D4FD;
    B26 : D090;
    B27 : D74E;
    B28 : E18D;
    B29 : E79F;
    B2A : EB1C;
    B2B : EB04;
    B2C : E6DA;
    B2D : E481;
    B2E : E6E9;
    B2F : E6B0;
    B30 : E1F0;
    B31 : DAC1;
    B32 : DAE7;
    B33 : DC5E;
    B34 : E1BC;
    B35 : E3F9;
    B36 : E2BA;
    B37 : E3C0;
    B38 : E62E;
    B39 : E4E5;
    B3A : E184;
    B3B : E2F7;
    B3C : E4C1;
    B3D : DCC1;
    B3E : D9DC;
    B3F : DA5E;
    B40 : D7D6;
    B41 : DADE;
    B42 : DE99;
    B43 : E3DB;
    B44 : E5C6;
    B45 : E5B7;
    B46 : E311;
    B47 : E2C1;
    B48 : E312;
    B49 : E48D;
    B4A : E777;
    B4B : EB5C;
    B4C : EA80;
    B4D : EE6A;
    B4E : F426;
    B4F : F6B8;
    B50 : F9EF;
    B51 : FDDD;
    B52 : FDB5;
    B53 : FDD1;
    B54 : F6CE;
    B55 : F424;
    B56 : F003;
    B57 : F425;
    B58 : F93E;
    B59 : F7DF;
    B5A : F864;
    B5B : FA72;
    B5C : FEEB;
    B5D : 03C7;
    B5E : 0806;
    B5F : 0730;
    B60 : 0367;
    B61 : F921;
    B62 : F073;
    B63 : ECB5;
    B64 : EB9F;
    B65 : EC74;
    B66 : F07E;
    B67 : F899;
    B68 : FD91;
    B69 : FC72;
    B6A : F911;
    B6B : F7F6;
    B6C : F434;
    B6D : F121;
    B6E : ED4E;
    B6F : E61D;
    B70 : E368;
    B71 : E42A;
    B72 : E79A;
    B73 : EA10;
    B74 : EFA2;
    B75 : F47C;
    B76 : F39D;
    B77 : F007;
    B78 : ED2B;
    B79 : EB38;
    B7A : EB42;
    B7B : E400;
    B7C : E38B;
    B7D : E506;
    B7E : E10B;
    B7F : DDC1;
    B80 : DF35;
    B81 : DFB2;
    B82 : E15B;
    B83 : E28F;
    B84 : DEE4;
    B85 : DE08;
    B86 : DFBF;
    B87 : E233;
    B88 : E140;
    B89 : E0B2;
    B8A : E289;
    B8B : E14E;
    B8C : DFD7;
    B8D : DC54;
    B8E : E0A6;
    B8F : E77B;
    B90 : E7F5;
    B91 : E4B8;
    B92 : E18F;
    B93 : DC65;
    B94 : DAC5;
    B95 : D8ED;
    B96 : D8DF;
    B97 : DEB9;
    B98 : DCA0;
    B99 : D567;
    B9A : D381;
    B9B : D93D;
    B9C : E16E;
    B9D : E137;
    B9E : DD85;
    B9F : DA22;
    BA0 : D42B;
    BA1 : CFF9;
    BA2 : D10D;
    BA3 : D45C;
    BA4 : D7F1;
    BA5 : DAB2;
    BA6 : DC46;
    BA7 : DF2A;
    BA8 : E180;
    BA9 : E129;
    BAA : DDD8;
    BAB : DBE1;
    BAC : D73A;
    BAD : D768;
    BAE : DCF6;
    BAF : E4FC;
    BB0 : E99E;
    BB1 : F2AB;
    BB2 : F847;
    BB3 : F767;
    BB4 : F5F5;
    BB5 : F6C9;
    BB6 : F289;
    BB7 : F151;
    BB8 : F93D;
    BB9 : FF29;
    BBA : FC5B;
    BBB : FA56;
    BBC : FDD0;
    BBD : FF65;
    BBE : FE33;
    BBF : 0209;
    BC0 : 0596;
    BC1 : 0958;
    BC2 : 0AC3;
    BC3 : 0AA3;
    BC4 : 083C;
    BC5 : 063B;
    BC6 : 0597;
    BC7 : 0461;
    BC8 : 0563;
    BC9 : 0726;
    BCA : 0A39;
    BCB : 09E4;
    BCC : 0ADB;
    BCD : 0AD9;
    BCE : 085B;
    BCF : 03CE;
    BD0 : 0129;
    BD1 : 0707;
    BD2 : 09EB;
    BD3 : 09C0;
    BD4 : 0AA0;
    BD5 : 0AAE;
    BD6 : 0725;
    BD7 : 02A7;
    BD8 : 01D0;
    BD9 : 0200;
    BDA : 0361;
    BDB : 03A1;
    BDC : 061E;
    BDD : 0921;
    BDE : 091F;
    BDF : 0223;
    BE0 : 01AE;
    BE1 : 0312;
    BE2 : 05B2;
    BE3 : 05AF;
    BE4 : 0647;
    BE5 : 0390;
    BE6 : 0035;
    BE7 : FF26;
    BE8 : FE32;
    BE9 : FD88;
    BEA : 0225;
    BEB : 0669;
    BEC : 0891;
    BED : 0775;
    BEE : 085A;
    BEF : 0AAB;
    BF0 : 0833;
    BF1 : 03F6;
    BF2 : FEE9;
    BF3 : FCE0;
    BF4 : FC14;
    BF5 : 004E;
    BF6 : 08EF;
    BF7 : 0B11;
    BF8 : 090C;
    BF9 : 0894;
    BFA : 02B0;
    BFB : FD17;
    BFC : FE40;
    BFD : 032F;
    BFE : 04BA;
    BFF : 0545;
    C00 : 0BCE;
    C01 : 0F80;
    C02 : 08F3;
    C03 : 0475;
    C04 : FED1;
    C05 : FC1E;
    C06 : 0009;
    C07 : 08CB;
    C08 : 0BA0;
    C09 : 0C22;
    C0A : 0F74;
    C0B : 0FEB;
    C0C : 0F6F;
    C0D : 0F48;
    C0E : 0EBC;
    C0F : 0A03;
    C10 : 081E;
    C11 : 08DF;
    C12 : 0B8B;
    C13 : 13DC;
    C14 : 1451;
    C15 : 1573;
    C16 : 14A4;
    C17 : 12BA;
    C18 : 1210;
    C19 : 10B4;
    C1A : 140C;
    C1B : 1604;
    C1C : 15EB;
    C1D : 122E;
    C1E : 0E7F;
    C1F : 110B;
    C20 : 1772;
    C21 : 1903;
    C22 : 1BEE;
    C23 : 2020;
    C24 : 21F5;
    C25 : 1FDA;
    C26 : 1F30;
    C27 : 1C84;
    C28 : 196C;
    C29 : 1940;
    C2A : 18A9;
    C2B : 19DD;
    C2C : 1E14;
    C2D : 21D9;
    C2E : 1DB1;
    C2F : 1C65;
    C30 : 1538;
    C31 : 130E;
    C32 : 15DD;
    C33 : 0F01;
    C34 : 1186;
    C35 : 1286;
    C36 : 138F;
    C37 : 1371;
    C38 : 0E44;
    C39 : 0A9B;
    C3A : 0A2D;
    C3B : 0CCB;
    C3C : 0D60;
    C3D : 1174;
    C3E : 141D;
    C3F : 1224;
    C40 : 0EA7;
    C41 : 0C05;
    C42 : 0965;
    C43 : 04C7;
    C44 : 0539;
    C45 : 0457;
    C46 : 08D9;
    C47 : 1153;
    C48 : 1092;
    C49 : 1192;
    C4A : 10CA;
    C4B : 132F;
    C4C : 1460;
    C4D : 12F7;
    C4E : 0D42;
    C4F : 07EC;
    C50 : 08B2;
    C51 : 0BE4;
    C52 : 109E;
    C53 : 14C3;
    C54 : 197D;
    C55 : 18A7;
    C56 : 17CE;
    C57 : 18A2;
    C58 : 156B;
    C59 : 120C;
    C5A : 1333;
    C5B : 12FB;
    C5C : 1210;
    C5D : 0CF1;
    C5E : 0C54;
    C5F : 103A;
    C60 : 1ACF;
    C61 : 1DA9;
    C62 : 1982;
    C63 : 1D29;
    C64 : 1D10;
    C65 : 21F9;
    C66 : 21E4;
    C67 : 1FF5;
    C68 : 1D10;
    C69 : 1305;
    C6A : 0C95;
    C6B : 10C7;
    C6C : 1A37;
    C6D : 2205;
    C6E : 2891;
    C6F : 1F41;
    C70 : 1A31;
    C71 : 1711;
    C72 : 14D6;
    C73 : 1700;
    C74 : 1320;
    C75 : 12CF;
    C76 : 1369;
    C77 : 13A7;
    C78 : 14AE;
    C79 : 147C;
    C7A : 176A;
    C7B : 1677;
    C7C : 1D7E;
    C7D : 1FF1;
    C7E : 1F39;
    C7F : 1FCF;
    C80 : 1B43;
    C81 : 1A40;
    C82 : 1B66;
    C83 : 20B5;
    C84 : 1FAE;
    C85 : 20B0;
    C86 : 23CA;
    C87 : 2544;
    C88 : 251E;
    C89 : 21F5;
    C8A : 20F5;
    C8B : 2078;
    C8C : 1CF3;
    C8D : 1CAB;
    C8E : 22DE;
    C8F : 272D;
    C90 : 2708;
    C91 : 2A50;
    C92 : 26CB;
    C93 : 202D;
    C94 : 1C8B;
    C95 : 1B4C;
    C96 : 1EA9;
    C97 : 23A2;
    C98 : 2341;
    C99 : 24B5;
    C9A : 24CF;
    C9B : 2396;
    C9C : 1D86;
    C9D : 1C77;
    C9E : 1A32;
    C9F : 16D4;
    CA0 : 1ACB;
    CA1 : 1B79;
    CA2 : 1ACB;
    CA3 : 19EB;
    CA4 : 1A06;
    CA5 : 180F;
    CA6 : 1266;
    CA7 : 097F;
    CA8 : 0849;
    CA9 : 06E8;
    CAA : 04D2;
    CAB : 0D8F;
    CAC : 1579;
    CAD : 1976;
    CAE : 1585;
    CAF : 1206;
    CB0 : 10CB;
    CB1 : 0AB2;
    CB2 : 06D2;
    CB3 : 0042;
    CB4 : FC3F;
    CB5 : F991;
    CB6 : FA1A;
    CB7 : FE10;
    CB8 : 02EE;
    CB9 : 02E4;
    CBA : 067D;
    CBB : 054B;
    CBC : 028B;
    CBD : FBAE;
    CBE : F6CA;
    CBF : F3A4;
    CC0 : F429;
    CC1 : F222;
    CC2 : F3B5;
    CC3 : F2BC;
    CC4 : F047;
    CC5 : F4BE;
    CC6 : F779;
    CC7 : FA40;
    CC8 : FB3A;
    CC9 : F900;
    CCA : F36B;
    CCB : F383;
    CCC : EE47;
    CCD : EC08;
    CCE : F68F;
    CCF : 0005;
    CD0 : FDE3;
    CD1 : FE81;
    CD2 : FE40;
    CD3 : FC9D;
    CD4 : F9E8;
    CD5 : FA4E;
    CD6 : F9AD;
    CD7 : F9E5;
    CD8 : F70F;
    CD9 : F330;
    CDA : EF9E;
    CDB : ED5D;
    CDC : F611;
    CDD : F8E9;
    CDE : F655;
    CDF : FA74;
    CE0 : FD55;
    CE1 : FE96;
    CE2 : FE5F;
    CE3 : FDD0;
    CE4 : F670;
    CE5 : F222;
    CE6 : EE27;
    CE7 : F232;
    CE8 : F7C3;
    CE9 : FC13;
    CEA : 00E1;
    CEB : FCFC;
    CEC : FC2C;
    CED : FBB8;
    CEE : F7C7;
    CEF : F680;
    CF0 : F8F1;
    CF1 : FE92;
    CF2 : 0077;
    CF3 : 0025;
    CF4 : FD63;
    CF5 : F993;
    CF6 : FF6F;
    CF7 : FDD5;
    CF8 : FCB6;
    CF9 : FE54;
    CFA : FE3A;
    CFB : FA32;
    CFC : FC5C;
    CFD : FF9E;
    CFE : FE78;
    CFF : F549;
    D00 : EBFB;
    D01 : E6D5;
    D02 : E514;
    D03 : EB61;
    D04 : F5AF;
    D05 : FE9E;
    D06 : FF01;
    D07 : FDBC;
    D08 : FB72;
    D09 : ECDD;
    D0A : E5B3;
    D0B : E8C1;
    D0C : E69A;
    D0D : E1FD;
    D0E : E53E;
    D0F : E857;
    D10 : ECFF;
    D11 : EDE8;
    D12 : ED33;
    D13 : EC86;
    D14 : EA51;
    D15 : E4BC;
    D16 : DF09;
    D17 : E0F9;
    D18 : E0C7;
    D19 : DBB2;
    D1A : D5D7;
    D1B : D695;
    D1C : D7F0;
    D1D : DA36;
    D1E : DF3E;
    D1F : E2E8;
    D20 : E427;
    D21 : E4A4;
    D22 : E049;
    D23 : DDC9;
    D24 : DE38;
    D25 : D987;
    D26 : D6FE;
    D27 : D979;
    D28 : DC3B;
    D29 : DF19;
    D2A : DECA;
    D2B : DF20;
    D2C : DDD0;
    D2D : DB0F;
    D2E : D55E;
    D2F : D38B;
    D30 : D3DC;
    D31 : D511;
    D32 : D86C;
    D33 : DDF1;
    D34 : E153;
    D35 : DF3C;
    D36 : E114;
    D37 : E330;
    D38 : E52D;
    D39 : E536;
    D3A : E618;
    D3B : E86E;
    D3C : E551;
    D3D : E1F3;
    D3E : DE08;
    D3F : DA81;
    D40 : D708;
    D41 : D7E4;
    D42 : D7EF;
    D43 : D756;
    D44 : D97E;
    D45 : DD2B;
    D46 : E294;
    D47 : E578;
    D48 : E544;
    D49 : E12D;
    D4A : DA80;
    D4B : D74D;
    D4C : D810;
    D4D : DE09;
    D4E : E43E;
    D4F : E836;
    D50 : E775;
    D51 : E285;
    D52 : E7BC;
    D53 : ED5A;
    D54 : EED8;
    D55 : F29C;
    D56 : F620;
    D57 : F173;
    D58 : EEA9;
    D59 : ED04;
    D5A : EE23;
    D5B : F2D3;
    D5C : F438;
    D5D : F4C4;
    D5E : F62B;
    D5F : FD0D;
    D60 : 011F;
    D61 : 01E7;
    D62 : FF73;
    D63 : F5BD;
    D64 : E96E;
    D65 : E8DC;
    D66 : EDBD;
    D67 : F08E;
    D68 : F75B;
    D69 : FDF0;
    D6A : FD62;
    D6B : F6B0;
    D6C : F7A7;
    D6D : F894;
    D6E : F662;
    D6F : F7DA;
    D70 : F9BC;
    D71 : F75C;
    D72 : F4A6;
    D73 : F920;
    D74 : FB37;
    D75 : FC13;
    D76 : FB84;
    D77 : F986;
    D78 : F7AA;
    D79 : F931;
    D7A : FEBE;
    D7B : FDE9;
    D7C : FD00;
    D7D : F70C;
    D7E : F7C5;
    D7F : FA54;
    D80 : FA9B;
    D81 : FE10;
    D82 : 002C;
    D83 : 013E;
    D84 : 0316;
    D85 : 03BD;
    D86 : 026B;
    D87 : 024D;
    D88 : 01DB;
    D89 : FE74;
    D8A : FA43;
    D8B : FB47;
    D8C : FE3F;
    D8D : FF7C;
    D8E : 02CB;
    D8F : 0522;
    D90 : 01D6;
    D91 : 018A;
    D92 : 04CF;
    D93 : 00B5;
    D94 : 00D1;
    D95 : 008C;
    D96 : 0157;
    D97 : 0264;
    D98 : FFF5;
    D99 : 0108;
    D9A : 0032;
    D9B : 00A4;
    D9C : 02DA;
    D9D : 0702;
    D9E : 0F22;
    D9F : 153C;
    DA0 : 12BC;
    DA1 : 0FB6;
    DA2 : 0AD5;
    DA3 : 05E2;
    DA4 : 0089;
    DA5 : 002D;
    DA6 : 054C;
    DA7 : 095F;
    DA8 : 084A;
    DA9 : 0AD5;
    DAA : 0CBF;
    DAB : 0BA7;
    DAC : 0960;
    DAD : 0881;
    DAE : 070C;
    DAF : 0B05;
    DB0 : 1133;
    DB1 : 1365;
    DB2 : 164C;
    DB3 : 19C8;
    DB4 : 19FD;
    DB5 : 19F8;
    DB6 : 19B9;
    DB7 : 1D74;
    DB8 : 1F3A;
    DB9 : 1EF9;
    DBA : 1CBC;
    DBB : 167D;
    DBC : 136E;
    DBD : 0F9B;
    DBE : 1067;
    DBF : 0EE2;
    DC0 : 100C;
    DC1 : 151C;
    DC2 : 1994;
    DC3 : 1D77;
    DC4 : 1CE3;
    DC5 : 1A8D;
    DC6 : 1C9B;
    DC7 : 19C1;
    DC8 : 1735;
    DC9 : 1553;
    DCA : 14C8;
    DCB : 188D;
    DCC : 1C42;
    DCD : 2083;
    DCE : 22E5;
    DCF : 2192;
    DD0 : 1BD3;
    DD1 : 1B85;
    DD2 : 1968;
    DD3 : 1310;
    DD4 : 14DC;
    DD5 : 13FA;
    DD6 : 1624;
    DD7 : 1AD3;
    DD8 : 1851;
    DD9 : 14F4;
    DDA : 159A;
    DDB : 1687;
    DDC : 133D;
    DDD : 1320;
    DDE : 1B10;
    DDF : 1EB6;
    DE0 : 1D6C;
    DE1 : 1D14;
    DE2 : 1E0A;
    DE3 : 1E43;
    DE4 : 1D3F;
    DE5 : 2116;
    DE6 : 254C;
    DE7 : 25AF;
    DE8 : 24A6;
    DE9 : 24C6;
    DEA : 2239;
    DEB : 1F35;
    DEC : 1EB1;
    DED : 203A;
    DEE : 1EE3;
    DEF : 20EB;
    DF0 : 2465;
    DF1 : 223D;
    DF2 : 2074;
    DF3 : 1F11;
    DF4 : 1DD5;
    DF5 : 1F40;
    DF6 : 219C;
    DF7 : 249C;
    DF8 : 22FE;
    DF9 : 1C49;
    DFA : 195F;
    DFB : 16EE;
    DFC : 13AA;
    DFD : 1455;
    DFE : 19C7;
    DFF : 1C14;
    E00 : 2131;
    E01 : 290A;
    E02 : 2B66;
    E03 : 2AF3;
    E04 : 2A4A;
    E05 : 2820;
    E06 : 24D3;
    E07 : 1BC0;
    E08 : 197F;
    E09 : 197C;
    E0A : 1F09;
    E0B : 26E5;
    E0C : 23A7;
    E0D : 1C03;
    E0E : 1980;
    E0F : 162E;
    E10 : 1562;
    E11 : 19A7;
    E12 : 1D46;
    E13 : 1FA2;
    E14 : 19F3;
    E15 : 1A34;
    E16 : 1D3A;
    E17 : 219E;
    E18 : 22B4;
    E19 : 2009;
    E1A : 2134;
    E1B : 222E;
    E1C : 1F83;
    E1D : 1FB2;
    E1E : 204A;
    E1F : 1CDA;
    E20 : 17E8;
    E21 : 107F;
    E22 : 0FEE;
    E23 : 176C;
    E24 : 1E1C;
    E25 : 2186;
    E26 : 24EA;
    E27 : 2711;
    E28 : 206C;
    E29 : 1C11;
    E2A : 1741;
    E2B : 0E21;
    E2C : 0C3C;
    E2D : 135E;
    E2E : 1739;
    E2F : 1A03;
    E30 : 1C85;
    E31 : 1E45;
    E32 : 1940;
    E33 : 137F;
    E34 : 0F0B;
    E35 : 0948;
    E36 : 0982;
    E37 : 0F34;
    E38 : 0FBE;
    E39 : 0F73;
    E3A : 0F0B;
    E3B : 0CF4;
    E3C : 0726;
    E3D : 0258;
    E3E : FFDB;
    E3F : FD15;
    E40 : FD75;
    E41 : FDF1;
    E42 : 0056;
    E43 : 01BB;
    E44 : 02A2;
    E45 : FF4B;
    E46 : 0014;
    E47 : FFC6;
    E48 : FD6B;
    E49 : FC99;
    E4A : FBD1;
    E4B : F8B9;
    E4C : F3F0;
    E4D : EF26;
    E4E : EC31;
    E4F : EC4D;
    E50 : E846;
    E51 : E8E0;
    E52 : E6AF;
    E53 : E1C4;
    E54 : E370;
    E55 : E521;
    E56 : E3C7;
    E57 : E14D;
    E58 : E150;
    E59 : DF8A;
    E5A : DF85;
    E5B : DE2A;
    E5C : DF68;
    E5D : DE6C;
    E5E : DCF7;
    E5F : D933;
    E60 : D709;
    E61 : D560;
    E62 : DAB4;
    E63 : DE42;
    E64 : DAD3;
    E65 : DD08;
    E66 : DED1;
    E67 : DFF7;
    E68 : DCAA;
    E69 : DB47;
    E6A : DB4A;
    E6B : DB87;
    E6C : E23D;
    E6D : E7F5;
    E6E : E7B3;
    E6F : E1E7;
    E70 : DE57;
    E71 : D914;
    E72 : D6AF;
    E73 : D85C;
    E74 : DC34;
    E75 : DE28;
    E76 : DE91;
    E77 : E3A2;
    E78 : E4D3;
    E79 : E64B;
    E7A : E6AA;
    E7B : E341;
    E7C : E1CB;
    E7D : E43A;
    E7E : E643;
    E7F : EA92;
    E80 : EF7D;
    E81 : F55D;
    E82 : F36B;
    E83 : EB9E;
    E84 : E89F;
    E85 : E984;
    E86 : EBBD;
    E87 : ED4D;
    E88 : F14B;
    E89 : F348;
    E8A : F070;
    E8B : EFD9;
    E8C : F0C3;
    E8D : F162;
    E8E : F1EC;
    E8F : F297;
    E90 : F126;
    E91 : F52F;
    E92 : FC0C;
    E93 : FF34;
    E94 : FC2F;
    E95 : F7F2;
    E96 : F3F5;
    E97 : F2C6;
    E98 : F318;
    E99 : F232;
    E9A : F5B9;
    E9B : F9F7;
    E9C : FC52;
    E9D : F950;
    E9E : F527;
    E9F : F16F;
    EA0 : EC63;
    EA1 : E8BD;
    EA2 : E993;
    EA3 : EE35;
    EA4 : EDDF;
    EA5 : EAB5;
    EA6 : E9EA;
    EA7 : E9B0;
    EA8 : E94C;
    EA9 : EA1E;
    EAA : EB78;
    EAB : EBAD;
    EAC : EC49;
    EAD : F030;
    EAE : EF65;
    EAF : EE13;
    EB0 : EEF9;
    EB1 : EF03;
    EB2 : EDB0;
    EB3 : EF57;
    EB4 : EFC8;
    EB5 : EEF4;
    EB6 : EB59;
    EB7 : EA6B;
    EB8 : E999;
    EB9 : E7FF;
    EBA : E6B2;
    EBB : E84A;
    EBC : E927;
    EBD : EC1A;
    EBE : F02E;
    EBF : ED12;
    EC0 : F14A;
    EC1 : F27D;
    EC2 : F12F;
    EC3 : EA59;
    EC4 : E610;
    EC5 : E7A8;
    EC6 : E852;
    EC7 : ED0D;
    EC8 : F137;
    EC9 : F0B6;
    ECA : EEC1;
    ECB : F019;
    ECC : F1C5;
    ECD : F0EC;
    ECE : F210;
    ECF : F4EC;
    ED0 : F4D4;
    ED1 : F1B1;
    ED2 : F409;
    ED3 : F341;
    ED4 : F512;
    ED5 : F775;
    ED6 : F8A3;
    ED7 : F2D0;
    ED8 : EF0E;
    ED9 : EF70;
    EDA : EEA2;
    EDB : F070;
    EDC : F1C1;
    EDD : EE88;
    EDE : EE8C;
    EDF : EF5F;
    EE0 : EF53;
    EE1 : F571;
    EE2 : FCA7;
    EE3 : 0421;
    EE4 : 028B;
    EE5 : 0099;
    EE6 : FF61;
    EE7 : FD42;
    EE8 : FB39;
    EE9 : FBC6;
    EEA : FC2C;
    EEB : FB3E;
    EEC : FC3E;
    EED : FDF9;
    EEE : FE9C;
    EEF : FF81;
    EF0 : 0128;
    EF1 : 0016;
    EF2 : FB66;
    EF3 : 0104;
    EF4 : 0810;
    EF5 : 0785;
    EF6 : 04BE;
    EF7 : 041E;
    EF8 : 00EE;
    EF9 : F9A1;
    EFA : F77A;
    EFB : F953;
    EFC : 022C;
    EFD : 04F7;
    EFE : 01CB;
    EFF : 04E7;
    F00 : 035B;
    F01 : FC65;
    F02 : F68F;
    F03 : F0CB;
    F04 : F139;
    F05 : F633;
    F06 : FA4C;
    F07 : FAB3;
    F08 : FD0F;
    F09 : FE81;
    F0A : FC9E;
    F0B : F94A;
    F0C : FCE3;
    F0D : 000F;
    F0E : 0185;
    F0F : 0383;
    F10 : 0417;
    F11 : 0727;
    F12 : 0B39;
    F13 : 08BD;
    F14 : 0656;
    F15 : 05F2;
    F16 : 07F6;
    F17 : 0A16;
    F18 : 09C2;
    F19 : 0954;
    F1A : 053E;
    F1B : 0289;
    F1C : FD43;
    F1D : FDB6;
    F1E : FE4E;
    F1F : FFCF;
    F20 : 0218;
    F21 : 0445;
    F22 : 088B;
    F23 : 0BBC;
    F24 : 0C38;
    F25 : 0676;
    F26 : 00F6;
    F27 : 033A;
    F28 : 064E;
    F29 : 07D4;
    F2A : 0ADC;
    F2B : 0AA0;
    F2C : 07CB;
    F2D : 05CA;
    F2E : 00D8;
    F2F : FC83;
    F30 : FB4E;
    F31 : FCBD;
    F32 : FE25;
    F33 : FE77;
    F34 : FD1C;
    F35 : 05D8;
    F36 : 0DDA;
    F37 : 0F2A;
    F38 : 0A78;
    F39 : 04B3;
    F3A : 031E;
    F3B : 0415;
    F3C : 0812;
    F3D : 0B96;
    F3E : 112A;
    F3F : 0C2D;
    F40 : 065A;
    F41 : 0402;
    F42 : 05F6;
    F43 : 070C;
    F44 : 0968;
    F45 : 0F6F;
    F46 : 12CB;
    F47 : 17CF;
    F48 : 1B34;
    F49 : 1502;
    F4A : 0C61;
    F4B : 0B78;
    F4C : 11EE;
    F4D : 1487;
    F4E : 1485;
    F4F : 13DB;
    F50 : 1333;
    F51 : 11E3;
    F52 : 0F6F;
    F53 : 0CCC;
    F54 : 09F3;
    F55 : 0CCA;
    F56 : 12E1;
    F57 : 1573;
    F58 : 15AD;
    F59 : 13B6;
    F5A : 13F9;
    F5B : 13C2;
    F5C : 1142;
    F5D : 11FE;
    F5E : 0E90;
    F5F : 0E0E;
    F60 : 0E13;
    F61 : 0F11;
    F62 : 0F26;
    F63 : 0DB5;
    F64 : 0B33;
    F65 : 0439;
    F66 : 04A8;
    F67 : 0601;
    F68 : 043B;
    F69 : 058D;
    F6A : 05EF;
    F6B : 04F9;
    F6C : 0392;
    F6D : 045A;
    F6E : 0005;
    F6F : 0019;
    F70 : 0213;
    F71 : 02AC;
    F72 : 0193;
    F73 : FFB0;
    F74 : 02C6;
    F75 : 04FC;
    F76 : 0305;
    F77 : 027A;
    F78 : 0656;
    F79 : 07F8;
    F7A : 0671;
    F7B : 0A10;
    F7C : 0CC7;
    F7D : 0969;
    F7E : 035A;
    F7F : FF57;
    F80 : FB13;
    F81 : F86B;
    F82 : FC1A;
    F83 : FECD;
    F84 : 018A;
    F85 : 0274;
    F86 : 0203;
    F87 : FF4F;
    F88 : FD8E;
    F89 : FE2E;
    F8A : 0146;
    F8B : 0081;
    F8C : 0323;
    F8D : 029D;
    F8E : 030D;
    F8F : 0574;
    F90 : 0830;
    F91 : 07D5;
    F92 : 0381;
    F93 : 010C;
    F94 : FE2D;
    F95 : FD3C;
    F96 : 01C9;
    F97 : 00E0;
    F98 : FDCE;
    F99 : FEB5;
    F9A : FCB2;
    F9B : F831;
    F9C : F924;
    F9D : FBC1;
    F9E : FFBE;
    F9F : 0744;
    FA0 : 0B89;
    FA1 : 0B29;
    FA2 : 09AB;
    FA3 : 09E1;
    FA4 : 0506;
    FA5 : FB1B;
    FA6 : F4A4;
    FA7 : F92D;
    FA8 : FC49;
    FA9 : FD38;
    FAA : F974;
    FAB : F8F9;
    FAC : FB43;
    FAD : FE79;
    FAE : 047E;
    FAF : 03EA;
    FB0 : 017C;
    FB1 : 04B5;
    FB2 : 0645;
    FB3 : 06AF;
    FB4 : 02FA;
    FB5 : 01A7;
    FB6 : FFA9;
    FB7 : FF54;
    FB8 : 057A;
    FB9 : 078D;
    FBA : 0AD2;
    FBB : 0C4A;
    FBC : 0F55;
    FBD : 0D3E;
    FBE : 092F;
    FBF : 040B;
    FC0 : 027C;
    FC1 : 068E;
    FC2 : 0869;
    FC3 : 07AD;
    FC4 : 0B30;
    FC5 : 0E59;
    FC6 : 1081;
    FC7 : 103F;
    FC8 : 0FDC;
    FC9 : 0E09;
    FCA : 09B3;
    FCB : 073D;
    FCC : 07AD;
    FCD : 0BC8;
    FCE : 0DCE;
    FCF : 1176;
    FD0 : 0D9C;
    FD1 : 0794;
    FD2 : 0338;
    FD3 : 0036;
    FD4 : FF91;
    FD5 : 0B0B;
    FD6 : 1444;
    FD7 : 10C8;
    FD8 : 0678;
    FD9 : 038E;
    FDA : 017B;
    FDB : 0021;
    FDC : 00E4;
    FDD : 023F;
    FDE : 03A7;
    FDF : 085B;
    FE0 : 099E;
    FE1 : 0B7B;
    FE2 : 0ECE;
    FE3 : 0A0B;
    FE4 : 03F9;
    FE5 : FE4E;
    FE6 : 0249;
    FE7 : 0554;
    FE8 : 05C0;
    FE9 : 0181;
    FEA : FCD5;
    FEB : FBE3;
    FEC : FAAC;
    FED : FA83;
    FEE : FC14;
    FEF : FB13;
    FF0 : FE0F;
    FF1 : FF77;
    FF2 : FD7D;
    FF3 : FBE6;
    FF4 : FAE2;
    FF5 : F6AE;
    FF6 : F4BE;
    FF7 : F598;
    FF8 : FDAD;
    FF9 : 0375;
    FFA : 0256;
    FFB : FEAC;
    FFC : FE27;
    FFD : FDCB;
    FFE : FCD7;
    FFF : FA02;
    1000 : FAA4;
    1001 : FF69;
    1002 : 0489;
    1003 : 0698;
    1004 : 0A99;
    1005 : 09AB;
    1006 : 0744;
    1007 : 02CE;
    1008 : 02BB;
    1009 : 0914;
    100A : 0C45;
    100B : 0B1A;
    100C : 0915;
    100D : 0A5F;
    100E : 0712;
    100F : 03BB;
    1010 : 037C;
    1011 : 06D0;
    1012 : 083B;
    1013 : 0B5A;
    1014 : 0CF7;
    1015 : 0E19;
    1016 : 0FDB;
    1017 : 0F7C;
    1018 : 0CE6;
    1019 : 0DCB;
    101A : 0F41;
    101B : 12FC;
    101C : 1707;
    101D : 17F2;
    101E : 17AA;
    101F : 18FB;
    1020 : 169B;
    1021 : 111C;
    1022 : 0B42;
    1023 : 0BFE;
    1024 : 0A7E;
    1025 : 0A23;
    1026 : 0EB1;
    1027 : 164B;
    1028 : 185E;
    1029 : 11CA;
    102A : 0E84;
    102B : 0C29;
    102C : 0822;
    102D : 051E;
    102E : 04DE;
    102F : 0676;
    1030 : 0975;
    1031 : 0B89;
    1032 : 0684;
    1033 : 08B7;
    1034 : 077A;
    1035 : 009A;
    1036 : 01BC;
    1037 : 080F;
    1038 : 0BA7;
    1039 : 09D1;
    103A : 039F;
    103B : FD8E;
    103C : FBFE;
    103D : FB8B;
    103E : FDB8;
    103F : FC88;
    1040 : F9EC;
    1041 : FBC5;
    1042 : FAE6;
    1043 : FB49;
    1044 : FE1E;
    1045 : FD16;
    1046 : FE50;
    1047 : F6AE;
    1048 : FB4E;
    1049 : 01B6;
    104A : FF8D;
    104B : FA93;
    104C : F9DF;
    104D : F83C;
    104E : F0B3;
    104F : EED7;
    1050 : EFC1;
    1051 : EF12;
    1052 : ED84;
    1053 : F0F6;
    1054 : F434;
    1055 : F63D;
    1056 : F799;
    1057 : F345;
    1058 : F2D5;
    1059 : F089;
    105A : EFF8;
    105B : F1B4;
    105C : F39A;
    105D : F5C8;
    105E : F735;
    105F : F729;
    1060 : F51F;
    1061 : F2C1;
    1062 : EF04;
    1063 : E91A;
    1064 : E919;
    1065 : E7D3;
    1066 : E6E2;
    1067 : E7F7;
    1068 : ED98;
    1069 : EEDF;
    106A : EDFB;
    106B : EFB8;
    106C : F014;
    106D : ED86;
    106E : E957;
    106F : E5D9;
    1070 : E3B9;
    1071 : E3A1;
    1072 : E159;
    1073 : E0D4;
    1074 : DE4F;
    1075 : DDA5;
    1076 : DC54;
    1077 : E1D3;
    1078 : E630;
    1079 : E891;
    107A : E59B;
    107B : E6CD;
    107C : E382;
    107D : E229;
    107E : E70E;
    107F : E67E;
    1080 : E6BF;
    1081 : E65E;
    1082 : E9CA;
    1083 : EF4F;
    1084 : F057;
    1085 : ED27;
    1086 : E6E9;
    1087 : E74E;
    1088 : E85B;
    1089 : E789;
    108A : EA7B;
    108B : EC91;
    108C : F169;
    108D : F068;
    108E : EDFE;
    108F : EEC9;
    1090 : ED58;
    1091 : EBE2;
    1092 : EDA8;
    1093 : F3A6;
    1094 : F4F7;
    1095 : F3ED;
    1096 : EFCF;
    1097 : EB98;
    1098 : EA69;
    1099 : EBFE;
    109A : EB5D;
    109B : E9AA;
    109C : EFD4;
    109D : F6A0;
    109E : F53F;
    109F : F3DC;
    10A0 : F474;
    10A1 : F2F0;
    10A2 : F14F;
    10A3 : EF2F;
    10A4 : EF6D;
    10A5 : F307;
    10A6 : F405;
    10A7 : F41D;
    10A8 : F08B;
    10A9 : EEA8;
    10AA : F112;
    10AB : F13C;
    10AC : F63E;
    10AD : FC7E;
    10AE : 033B;
    10AF : 0168;
    10B0 : FCD7;
    10B1 : FAD8;
    10B2 : F62E;
    10B3 : F39C;
    10B4 : F3DD;
    10B5 : FAC2;
    10B6 : FF9C;
    10B7 : 01D0;
    10B8 : 046E;
    10B9 : 0186;
    10BA : 000B;
    10BB : 013C;
    10BC : 000F;
    10BD : FC15;
    10BE : F98B;
    10BF : F791;
    10C0 : F9E5;
    10C1 : FDF5;
    10C2 : 021E;
    10C3 : 03A1;
    10C4 : 0904;
    10C5 : 0626;
    10C6 : FE35;
    10C7 : FA9B;
    10C8 : FEE0;
    10C9 : 0261;
    10CA : FFA7;
    10CB : F8DB;
    10CC : F409;
    10CD : F78B;
    10CE : 003A;
    10CF : 03BE;
    10D0 : 0A0E;
    10D1 : 0E25;
    10D2 : 0E56;
    10D3 : 0C51;
    10D4 : 088B;
    10D5 : 02D6;
    10D6 : 01BE;
    10D7 : 0336;
    10D8 : 047E;
    10D9 : 05E1;
    10DA : 0625;
    10DB : 08E8;
    10DC : 0728;
    10DD : 0C1F;
    10DE : 0DA1;
    10DF : 0F14;
    10E0 : 0C98;
    10E1 : 0AA8;
    10E2 : 0BCA;
    10E3 : 0EFF;
    10E4 : 137F;
    10E5 : 15FA;
    10E6 : 1152;
    10E7 : 123F;
    10E8 : 1428;
    10E9 : 1193;
    10EA : 13CF;
    10EB : 1876;
    10EC : 1D77;
    10ED : 1C40;
    10EE : 1B7C;
    10EF : 1AED;
    10F0 : 19E9;
    10F1 : 1ABC;
    10F2 : 1A94;
    10F3 : 1EB9;
    10F4 : 202C;
    10F5 : 1DDC;
    10F6 : 195A;
    10F7 : 1967;
    10F8 : 1C72;
    10F9 : 1B45;
    10FA : 163C;
    10FB : 1272;
    10FC : 132E;
    10FD : 1090;
    10FE : 1198;
    10FF : 1495;
    1100 : 13A7;
    1101 : 18E0;
    1102 : 1A8A;
    1103 : 14E0;
    1104 : 13B1;
    1105 : 12DD;
    1106 : 1060;
    1107 : 0FDA;
    1108 : 10CA;
    1109 : 11B0;
    110A : 0B25;
    110B : 0A5D;
    110C : 0D11;
    110D : 0F13;
    110E : 133D;
    110F : 139F;
    1110 : 13C5;
    1111 : 1720;
    1112 : 10E9;
    1113 : 0A01;
    1114 : 096D;
    1115 : 0C05;
    1116 : 0BCA;
    1117 : 0C96;
    1118 : 0F08;
    1119 : 0D02;
    111A : 0F47;
    111B : 1006;
    111C : 10A7;
    111D : 0D5F;
    111E : 09AA;
    111F : 04AC;
    1120 : 0530;
    1121 : 0988;
    1122 : 087A;
    1123 : 0166;
    1124 : 011A;
    1125 : 01BE;
    1126 : 0461;
    1127 : 0743;
    1128 : 095D;
    1129 : 089E;
    112A : 0B16;
    112B : 0D00;
    112C : 0AE8;
    112D : 0781;
    112E : 0510;
    112F : 061D;
    1130 : 041E;
    1131 : 029E;
    1132 : 07AA;
    1133 : 0B1C;
    1134 : 0D38;
    1135 : 11EC;
    1136 : 12B6;
    1137 : 1670;
    1138 : 177E;
    1139 : 0F6D;
    113A : 077E;
    113B : 09DF;
    113C : 0ACA;
    113D : 0AD9;
    113E : 0FCD;
    113F : 12F9;
    1140 : 1209;
    1141 : 0B9E;
    1142 : 0469;
    1143 : 052B;
    1144 : 0BD6;
    1145 : 0C82;
    1146 : 0F66;
    1147 : 0ED5;
    1148 : 105D;
    1149 : 0F3E;
    114A : 0FF1;
    114B : 15AA;
    114C : 1980;
    114D : 1EE9;
    114E : 199D;
    114F : 1694;
    1150 : 153C;
    1151 : 19FD;
    1152 : 183C;
    1153 : 1383;
    1154 : 12CA;
    1155 : 0EE3;
    1156 : 0EEA;
    1157 : 0F72;
    1158 : 1407;
    1159 : 1512;
    115A : 15EC;
    115B : 15DD;
    115C : 137C;
    115D : 130E;
    115E : 1241;
    115F : 0EE6;
    1160 : 0F9C;
    1161 : 1372;
    1162 : 1182;
    1163 : 1226;
    1164 : 0FF7;
    1165 : 1306;
    1166 : 1106;
    1167 : 1274;
    1168 : 146A;
    1169 : 1387;
    116A : 0E87;
    116B : 0A74;
    116C : 03C3;
    116D : 042C;
    116E : FFE6;
    116F : 008A;
    1170 : 0537;
    1171 : 09DC;
    1172 : 0C2D;
    1173 : 0598;
    1174 : 02D6;
    1175 : 02B5;
    1176 : 06F1;
    1177 : 083E;
    1178 : 08E3;
    1179 : 0722;
    117A : 08AD;
    117B : 0241;
    117C : 020B;
    117D : 02A0;
    117E : 03D5;
    117F : FCCC;
    1180 : F765;
    1181 : F729;
    1182 : F465;
    1183 : F6C6;
    1184 : FB7F;
    1185 : FD47;
    1186 : FCE2;
    1187 : F61A;
    1188 : F2BA;
    1189 : F3B4;
    118A : F4A6;
    118B : F7EF;
    118C : FA49;
    118D : FB4C;
    118E : F5DD;
    118F : F196;
    1190 : F067;
    1191 : F3A9;
    1192 : F1F8;
    1193 : EF98;
    1194 : EC00;
    1195 : E923;
    1196 : EA40;
    1197 : F1FC;
    1198 : F8DC;
    1199 : F64F;
    119A : F2FB;
    119B : F1A1;
    119C : F2C9;
    119D : F32D;
    119E : F7A9;
    119F : F81E;
    11A0 : F928;
    11A1 : F55B;
    11A2 : F864;
    11A3 : F713;
    11A4 : F809;
    11A5 : F5C0;
    11A6 : EE43;
    11A7 : F0CB;
    11A8 : F36F;
    11A9 : F0E6;
    11AA : F162;
    11AB : F31D;
    11AC : EF72;
    11AD : EF2E;
    11AE : EF51;
    11AF : F1D8;
    11B0 : F666;
    11B1 : FA80;
    11B2 : FB07;
    11B3 : FDDB;
    11B4 : FC96;
    11B5 : F9FB;
    11B6 : F68B;
    11B7 : F004;
    11B8 : EE01;
    11B9 : F534;
    11BA : F491;
    11BB : F49E;
    11BC : F913;
    11BD : FC7D;
    11BE : F945;
    11BF : F878;
    11C0 : FAB8;
    11C1 : FAA4;
    11C2 : F71C;
    11C3 : F454;
    11C4 : F4AC;
    11C5 : F3AF;
    11C6 : F585;
    11C7 : F467;
    11C8 : F5CE;
    11C9 : F244;
    11CA : F29C;
    11CB : F220;
    11CC : F407;
    11CD : F3A2;
    11CE : F27B;
    11CF : F29E;
    11D0 : EA6F;
    11D1 : ECBB;
    11D2 : EC45;
    11D3 : E681;
    11D4 : E384;
    11D5 : E7B9;
    11D6 : EACB;
    11D7 : ED31;
    11D8 : EDE0;
    11D9 : EB88;
    11DA : E98C;
    11DB : EB41;
    11DC : E56A;
    11DD : E383;
    11DE : DFD5;
    11DF : E349;
    11E0 : E37E;
    11E1 : E68B;
    11E2 : EA93;
    11E3 : F0CA;
    11E4 : F29A;
    11E5 : E9A6;
    11E6 : E18D;
    11E7 : DFDC;
    11E8 : E2CB;
    11E9 : E19A;
    11EA : E347;
    11EB : E4B3;
    11EC : E8DF;
    11ED : E8DE;
    11EE : E737;
    11EF : E62E;
    11F0 : EE39;
    11F1 : EC2C;
    11F2 : ED86;
    11F3 : EC28;
    11F4 : E98C;
    11F5 : EA48;
    11F6 : EBFB;
    11F7 : EFF6;
    11F8 : F2F8;
    11F9 : F134;
    11FA : EF0A;
    11FB : F088;
    11FC : F137;
    11FD : F29B;
    11FE : F522;
    11FF : F1A4;
    1200 : F1B3;
    1201 : EE23;
    1202 : ED30;
    1203 : EA31;
    1204 : F0B1;
    1205 : EFE6;
    1206 : EBEA;
    1207 : F1F2;
    1208 : F91E;
    1209 : FB50;
    120A : F9D7;
    120B : FA39;
    120C : FB2D;
    120D : FC9C;
    120E : F467;
    120F : EB46;
    1210 : F16D;
    1211 : FD05;
    1212 : F872;
    1213 : F78E;
    1214 : F9CB;
    1215 : 0110;
    1216 : FBD8;
    1217 : FFE2;
    1218 : 04D4;
    1219 : FE72;
    121A : F52E;
    121B : F5B2;
    121C : 00FB;
    121D : F93D;
    121E : F5E8;
    121F : 02A5;
    1220 : 0758;
    1221 : 0526;
    1222 : 0356;
    1223 : 01EB;
    1224 : FD93;
    1225 : FDCE;
    1226 : 0ADE;
    1227 : 0A0A;
    1228 : FED2;
    1229 : FB31;
    122A : FFFB;
    122B : FB09;
    122C : F339;
    122D : EF84;
    122E : F6FB;
    122F : FA13;
    1230 : F8F9;
    1231 : F87D;
    1232 : ED18;
    1233 : E3D6;
    1234 : EDFB;
    1235 : F3E5;
    1236 : EA8F;
    1237 : F6B5;
    1238 : F94D;
    1239 : F81B;
    123A : F6DE;
    123B : 0560;
    123C : 0D59;
    123D : F738;
    123E : EC43;
    123F : ECC8;
    1240 : FAAE;
    1241 : F85F;
    1242 : F056;
    1243 : F5F1;
    1244 : EC3A;
    1245 : E8AF;
    1246 : DF31;
    1247 : DF2A;
    1248 : E4A3;
    1249 : E976;
[...]
    27E64 : 008B;
    27E65 : 007C;
    27E66 : 0070;
    27E67 : 0064;
    27E68 : 0062;
    27E69 : 0066;
    27E6A : 006B;
    27E6B : 0078;
    27E6C : 0089;
    27E6D : 0097;
    27E6E : 009C;
    27E6F : 00A1;
    27E70 : 00A2;
    27E71 : 00A2;
    27E72 : 00A1;
    27E73 : 009C;
    27E74 : 0096;
    27E75 : 008F;
    27E76 : 0094;
    27E77 : 00A1;
    27E78 : 00B4;
    27E79 : 00BF;
    27E7A : 00C6;
    27E7B : 00C6;
    27E7C : 00C6;
    27E7D : 00C8;
    27E7E : 00C4;
    27E7F : 00C4;
    27E80 : 00C9;
    27E81 : 00D2;
    27E82 : 00DA;
    27E83 : 00E1;
    27E84 : 00E3;
    27E85 : 00E6;
    27E86 : 00E6;
    27E87 : 00E4;
    27E88 : 00DF;
    27E89 : 00DE;
    27E8A : 00E1;
    27E8B : 00E2;
    27E8C : 00E0;
    27E8D : 00D7;
    27E8E : 00D5;
    27E8F : 00D5;
    27E90 : 00D4;
    27E91 : 00D5;
    27E92 : 00D9;
    27E93 : 00E0;
    27E94 : 00E0;
    27E95 : 00E7;
    27E96 : 00E2;
    27E97 : 00D2;
    27E98 : 00C0;
    27E99 : 00B8;
    27E9A : 00B2;
    27E9B : 00AE;
    27E9C : 00B2;
    27E9D : 00B6;
    27E9E : 00B6;
    27E9F : 00AF;
    27EA0 : 00A9;
    27EA1 : 00A3;
    27EA2 : 009F;
    27EA3 : 0096;
    27EA4 : 0089;
    27EA5 : 007F;
    27EA6 : 0076;
    27EA7 : 0077;
    27EA8 : 0077;
    27EA9 : 0078;
    27EAA : 0070;
    27EAB : 0065;
    27EAC : 0061;
    27EAD : 005D;
    27EAE : 005A;
    27EAF : 0056;
    27EB0 : 0052;
    27EB1 : 0049;
    27EB2 : 003E;
    27EB3 : 0030;
    27EB4 : 0023;
    27EB5 : 001C;
    27EB6 : 001A;
    27EB7 : 001E;
    27EB8 : 0024;
    27EB9 : 0027;
    27EBA : 0024;
    27EBB : 001D;
    27EBC : 0016;
    27EBD : 000D;
    27EBE : 000A;
    27EBF : 0000;
    27EC0 : FFFB;
    27EC1 : FFFE;
    27EC2 : FFFE;
    27EC3 : FFFC;
    27EC4 : FFF9;
    27EC5 : FFF8;
    27EC6 : FFF6;
    27EC7 : FFF2;
    27EC8 : FFEF;
    27EC9 : FFEE;
    27ECA : FFEA;
    27ECB : FFE4;
    27ECC : FFDF;
    27ECD : FFDA;
    27ECE : FFD4;
    27ECF : FFD0;
    27ED0 : FFD6;
    27ED1 : FFDF;
    27ED2 : FFE4;
    27ED3 : FFDF;
    27ED4 : FFD7;
    27ED5 : FFD1;
    27ED6 : FFD4;
    27ED7 : FFCA;
    27ED8 : FFBB;
    27ED9 : FFBA;
    27EDA : FFBA;
    27EDB : FFBD;
    27EDC : FFBB;
    27EDD : FFC5;
    27EDE : FFCE;
    27EDF : FFD0;
    27EE0 : FFCD;
    27EE1 : FFC5;
    27EE2 : FFBC;
    27EE3 : FFAA;
    27EE4 : FFA3;
    27EE5 : FFA5;
    27EE6 : FFAD;
    27EE7 : FFAC;
    27EE8 : FFAD;
    27EE9 : FFAC;
    27EEA : FFB3;
    27EEB : FFBE;
    27EEC : FFBC;
    27EED : FFB9;
    27EEE : FFB4;
    27EEF : FFAC;
    27EF0 : FF9F;
    27EF1 : FFA0;
    27EF2 : FFAE;
    27EF3 : FFB1;
    27EF4 : FFAD;
    27EF5 : FFAE;
    27EF6 : FFB1;
    27EF7 : FFB3;
    27EF8 : FFAE;
    27EF9 : FFB4;
    27EFA : FFB9;
    27EFB : FFB4;
    27EFC : FFAD;
    27EFD : FFAA;
    27EFE : FFAB;
    27EFF : FFAB;
    27F00 : FFA9;
    27F01 : FFB1;
    27F02 : FFB4;
    27F03 : FFB8;
    27F04 : FFBA;
    27F05 : FFB6;
    27F06 : FFB6;
    27F07 : FFB7;
    27F08 : FFBA;
    27F09 : FFBC;
    27F0A : FFBB;
    27F0B : FFB7;
    27F0C : FFBF;
    27F0D : FFC2;
    27F0E : FFBF;
    27F0F : FFC1;
    27F10 : FFBC;
    27F11 : FFBC;
    27F12 : FFBB;
    27F13 : FFBC;
    27F14 : FFC3;
    27F15 : FFC9;
    27F16 : FFCE;
    27F17 : FFCF;
    27F18 : FFC7;
    27F19 : FFBF;
    27F1A : FFBB;
    27F1B : FFBE;
    27F1C : FFC7;
    27F1D : FFC8;
    27F1E : FFD4;
    27F1F : FFDF;
    27F20 : FFDD;
    27F21 : FFDA;
    27F22 : FFD3;
    27F23 : FFD3;
    27F24 : FFCE;
    27F25 : FFCA;
    27F26 : FFCC;
    27F27 : FFCE;
    27F28 : FFD4;
    27F29 : FFE0;
    27F2A : FFF0;
    27F2B : FFFB;
    27F2C : FFFE;
    27F2D : FFF5;
    27F2E : FFEE;
    27F2F : FFE8;
    27F30 : FFE4;
    27F31 : FFE2;
    27F32 : FFE2;
    27F33 : FFEA;
    27F34 : FFFA;
    27F35 : 0004;
    27F36 : 000D;
    27F37 : 0018;
    27F38 : 001C;
    27F39 : 0018;
    27F3A : 000C;
    27F3B : 0002;
    27F3C : FFF8;
    27F3D : FFF5;
    27F3E : FFF7;
    27F3F : 0003;
    27F40 : 0010;
    27F41 : 0018;
    27F42 : 0021;
    27F43 : 0028;
    27F44 : 0027;
    27F45 : 0022;
    27F46 : 0019;
    27F47 : 0016;
    27F48 : 0017;
    27F49 : 001C;
    27F4A : 0020;
    27F4B : 001C;
    27F4C : 0017;
    27F4D : 001F;
    27F4E : 0028;
    27F4F : 0027;
    27F50 : 0028;
    27F51 : 002A;
    27F52 : 0031;
    27F53 : 0032;
    27F54 : 002F;
    27F55 : 002C;
    27F56 : 001D;
    27F57 : 0019;
    27F58 : 001A;
    27F59 : 0019;
    27F5A : 0019;
    27F5B : 001C;
    27F5C : 0026;
    27F5D : 0032;
    27F5E : 0038;
    27F5F : 0037;
    27F60 : 0031;
    27F61 : 0026;
    27F62 : 001F;
    27F63 : 0021;
    27F64 : 0028;
    27F65 : 002A;
    27F66 : 002A;
    27F67 : 002A;
    27F68 : 0029;
    27F69 : 002D;
    27F6A : 0031;
    27F6B : 002D;
    27F6C : 0026;
    27F6D : 001B;
    27F6E : 0013;
    27F6F : 000D;
    27F70 : 0007;
    27F71 : 0007;
    27F72 : 000E;
    27F73 : 0010;
    27F74 : 0014;
    27F75 : 0018;
    27F76 : 0013;
    27F77 : 000A;
    27F78 : FFFC;
    27F79 : FFF4;
    27F7A : FFED;
    27F7B : FFE6;
    27F7C : FFE3;
    27F7D : FFDF;
    27F7E : FFE3;
    27F7F : FFEB;
    27F80 : FFF0;
    27F81 : FFF1;
    27F82 : FFEA;
    27F83 : FFE1;
    27F84 : FFD5;
    27F85 : FFC4;
    27F86 : FFBC;
    27F87 : FFBB;
    27F88 : FFBA;
    27F89 : FFB1;
    27F8A : FFB2;
    27F8B : FFBC;
    27F8C : FFBC;
    27F8D : FFB9;
    27F8E : FFB6;
    27F8F : FFB5;
    27F90 : FFB4;
    27F91 : FFB5;
    27F92 : FFB6;
    27F93 : FFB1;
    27F94 : FFA9;
    27F95 : FFA5;
    27F96 : FFA5;
    27F97 : FFA3;
    27F98 : FFA1;
    27F99 : FFAC;
    27F9A : FFB7;
    27F9B : FFC0;
    27F9C : FFC7;
    27F9D : FFBC;
    27F9E : FFB0;
    27F9F : FFA5;
    27FA0 : FFA2;
    27FA1 : FFAC;
    27FA2 : FFB9;
    27FA3 : FFC3;
    27FA4 : FFC6;
    27FA5 : FFC8;
    27FA6 : FFC1;
    27FA7 : FFBD;
    27FA8 : FFC3;
    27FA9 : FFC6;
    27FAA : FFC8;
    27FAB : FFC5;
    27FAC : FFC7;
    27FAD : FFCA;
    27FAE : FFCC;
    27FAF : FFD3;
    27FB0 : FFD8;
    27FB1 : FFD7;
    27FB2 : FFD1;
    27FB3 : FFD1;
    27FB4 : FFD6;
    27FB5 : FFE2;
    27FB6 : FFE7;
    27FB7 : FFE4;
    27FB8 : FFE3;
    27FB9 : FFDF;
    27FBA : FFD7;
    27FBB : FFDD;
    27FBC : FFE2;
    27FBD : FFE5;
    27FBE : FFE5;
    27FBF : FFE7;
    27FC0 : FFED;
    27FC1 : FFF0;
    27FC2 : FFF3;
    27FC3 : FFF0;
    27FC4 : FFF4;
    27FC5 : FFF7;
    27FC6 : FFF8;
    27FC7 : FFF9;
    27FC8 : FFF9;
    27FC9 : FFFB;
    27FCA : FFFD;
    27FCB : FFFF;
    27FCC : 0007;
    27FCD : 0010;
    27FCE : 0013;
    27FCF : 0015;
    27FD0 : 0017;
    27FD1 : 001A;
    27FD2 : 001D;
    27FD3 : 001B;
    27FD4 : 001E;
    27FD5 : 0021;
    27FD6 : 0024;
    27FD7 : 0029;
    27FD8 : 002B;
    27FD9 : 0031;
    27FDA : 0035;
    27FDB : 0031;
    27FDC : 0030;
    27FDD : 002B;
    27FDE : 002A;
    27FDF : 002E;
    27FE0 : 002A;
    27FE1 : 0029;
    27FE2 : 0024;
    27FE3 : 0028;
    27FE4 : 002E;
    27FE5 : 0033;
    27FE6 : 0039;
    27FE7 : 0038;
    27FE8 : 0038;
    27FE9 : 0030;
    27FEA : 0027;
    27FEB : 001F;
    27FEC : 0015;
    27FED : 000B;
    27FEE : 0008;
    27FEF : 0008;
    27FF0 : 0009;
    27FF1 : 000E;
    27FF2 : 000F;
    27FF3 : 000F;
    27FF4 : 000D;
    27FF5 : 0005;
    27FF6 : FFF8;
    27FF7 : FFEA;
    27FF8 : FFE2;
    27FF9 : FFE0;
    27FFA : FFDD;
    27FFB : FFD9;
    27FFC : FFD8;
    27FFD : FFCD;
    27FFE : FFC3;
    27FFF : FFC5;
    28000 : FFC2;
    28001 : FFBE;
    28002 : FFB7;
    28003 : FFAE;
    28004 : FFAC;
    28005 : FFAB;
    28006 : FFA5;
    28007 : FF9F;
    28008 : FF9F;
    28009 : FF9D;
    2800A : FF95;
    2800B : FF8D;
    2800C : FF8A;
    2800D : FF87;
    2800E : FF80;
    2800F : FF7F;
    28010 : FF84;
    28011 : FF7F;
    28012 : FF77;
    28013 : FF71;
    28014 : FF68;
    28015 : FF61;
    28016 : FF5F;
    28017 : FF61;
    28018 : FF5E;
    28019 : FF5A;
    2801A : FF57;
    2801B : FF54;
    2801C : FF54;
    2801D : FF53;
    2801E : FF4F;
    2801F : FF49;
    28020 : FF3E;
    28021 : FF3B;
    28022 : FF3D;
    28023 : FF40;
    28024 : FF42;
    28025 : FF42;
    28026 : FF35;
    28027 : FF26;
    28028 : FF1D;
    28029 : FF14;
    2802A : FF10;
    2802B : FF12;
    2802C : FF15;
    2802D : FF14;
    2802E : FF0D;
    2802F : FF0A;
    28030 : FF0E;
    28031 : FF0A;
    28032 : FF01;
    28033 : FEFE;
    28034 : FEFB;
    28035 : FEF1;
    28036 : FEF0;
    28037 : FEF6;
    28038 : FEF7;
    28039 : FEF4;
    2803A : FEEF;
    2803B : FEEE;
    2803C : FEEB;
    2803D : FEEA;
    2803E : FEED;
    2803F : FEE5;
    28040 : FEE0;
    28041 : FEE3;
    28042 : FEE1;
    28043 : FEE4;
    28044 : FEDE;
    28045 : FED8;
    28046 : FED8;
    28047 : FED4;
    28048 : FED2;
    28049 : FED7;
    2804A : FED5;
    2804B : FED0;
    2804C : FECC;
    2804D : FECC;
    2804E : FECD;
    2804F : FEC8;
    28050 : FEC3;
    28051 : FEC6;
    28052 : FEC5;
    28053 : FEBD;
    28054 : FEBE;
    28055 : FEC1;
    28056 : FEC1;
    28057 : FEC4;
    28058 : FECB;
    28059 : FECD;
    2805A : FECB;
    2805B : FED1;
    2805C : FECF;
    2805D : FEC7;
    2805E : FEBE;
    2805F : FEBB;
    28060 : FEC4;
    28061 : FEC1;
    28062 : FEBF;
    28063 : FEC3;
    28064 : FECC;
    28065 : FED1;
    28066 : FECD;
    28067 : FECC;
    28068 : FED3;
    28069 : FEDB;
    2806A : FED5;
    2806B : FECF;
    2806C : FED3;
    2806D : FEDA;
    2806E : FED5;
    2806F : FECE;
    28070 : FED3;
    28071 : FEDE;
    28072 : FEE4;
    28073 : FEED;
    28074 : FEF5;
    28075 : FEF4;
    28076 : FEF0;
    28077 : FEE5;
    28078 : FEE0;
    28079 : FEE1;
    2807A : FEE5;
    2807B : FEEE;
    2807C : FEF8;
    2807D : FF03;
    2807E : FF0A;
    2807F : FF0D;
    28080 : FF0A;
    28081 : FF08;
    28082 : FEFF;
    28083 : FEF9;
    28084 : FF01;
    28085 : FF09;
    28086 : FF0E;
    28087 : FF14;
    28088 : FF1B;
    28089 : FF22;
    2808A : FF21;
    2808B : FF22;
    2808C : FF24;
    2808D : FF24;
    2808E : FF2B;
    2808F : FF30;
    28090 : FF2E;
    28091 : FF30;
    28092 : FF33;
    28093 : FF30;
    28094 : FF34;
    28095 : FF3C;
    28096 : FF39;
    28097 : FF39;
    28098 : FF3A;
    28099 : FF3B;
    2809A : FF3B;
    2809B : FF3E;
    2809C : FF43;
    2809D : FF3F;
    2809E : FF41;
    2809F : FF44;
    280A0 : FF46;
    280A1 : FF4D;
    280A2 : FF54;
    280A3 : FF58;
    280A4 : FF56;
    280A5 : FF53;
    280A6 : FF52;
    280A7 : FF53;
    280A8 : FF4E;
    280A9 : FF4D;
    280AA : FF52;
    280AB : FF5B;
    280AC : FF65;
    280AD : FF68;
    280AE : FF6B;
    280AF : FF6B;
    280B0 : FF69;
    280B1 : FF6B;
    280B2 : FF6F;
    280B3 : FF67;
    280B4 : FF60;
    280B5 : FF5F;
    280B6 : FF62;
    280B7 : FF62;
    280B8 : FF64;
    280B9 : FF6B;
    280BA : FF6E;
    280BB : FF71;
    280BC : FF6E;
    280BD : FF6B;
    280BE : FF69;
    280BF : FF67;
    280C0 : FF67;
    280C1 : FF67;
    280C2 : FF69;
    280C3 : FF69;
    280C4 : FF67;
    280C5 : FF6C;
    280C6 : FF6F;
    280C7 : FF66;
    280C8 : FF64;
    280C9 : FF5F;
    280CA : FF60;
    280CB : FF62;
    280CC : FF63;
    280CD : FF67;
    280CE : FF5E;
    280CF : FF52;
    280D0 : FF50;
    280D1 : FF52;
    280D2 : FF55;
    280D3 : FF58;
    280D4 : FF5F;
    280D5 : FF5D;
    280D6 : FF57;
    280D7 : FF58;
    280D8 : FF57;
    280D9 : FF59;
    280DA : FF4D;
    280DB : FF41;
    280DC : FF45;
    280DD : FF4D;
    280DE : FF54;
    280DF : FF58;
    280E0 : FF5B;
    280E1 : FF5B;
    280E2 : FF55;
    280E3 : FF4B;
    280E4 : FF48;
    280E5 : FF45;
    280E6 : FF44;
    280E7 : FF49;
    280E8 : FF53;
    280E9 : FF5D;
    280EA : FF5E;
    280EB : FF59;
    280EC : FF56;
    280ED : FF54;
    280EE : FF53;
    280EF : FF5C;
    280F0 : FF5A;
    280F1 : FF5E;
    280F2 : FF5F;
    280F3 : FF61;
    280F4 : FF66;
    280F5 : FF66;
    280F6 : FF6B;
    280F7 : FF6B;
    280F8 : FF6F;
    280F9 : FF72;
    280FA : FF70;
    280FB : FF70;
    280FC : FF71;
    280FD : FF74;
    280FE : FF78;
    280FF : FF7F;
    28100 : FF86;
    28101 : FF86;
    28102 : FF85;
    28103 : FF84;
    28104 : FF7F;
    28105 : FF81;
    28106 : FF8B;
    28107 : FF92;
    28108 : FF99;
    28109 : FF9F;
    2810A : FFA4;
    2810B : FFA6;
    2810C : FFA2;
    2810D : FF9F;
    2810E : FF9E;
    2810F : FFA3;
    28110 : FFAC;
    28111 : FFB7;
    28112 : FFB6;
    28113 : FFB2;
    28114 : FFB4;
    28115 : FFBB;
    28116 : FFBD;
    28117 : FFBE;
    28118 : FFC8;
    28119 : FFD3;
    2811A : FFDB;
    2811B : FFDF;
    2811C : FFDF;
    2811D : FFDA;
    2811E : FFDC;
    2811F : FFE0;
    28120 : FFE7;
    28121 : FFEA;
    28122 : FFEC;
    28123 : FFF7;
    28124 : FFFA;
    28125 : FFFA;
    28126 : FFF9;
    28127 : FFF6;
    28128 : FFF8;
    28129 : FFFC;
    2812A : FFFA;
    2812B : FFFC;
    2812C : 0000;
    2812D : 0008;
    2812E : 000B;
    2812F : 000B;
    28130 : 000B;
    28131 : 000E;
    28132 : 0011;
    28133 : 000D;
    28134 : 000D;
    28135 : 000E;
    28136 : 0010;
    28137 : 0010;
    28138 : 000C;
    28139 : 000B;
    2813A : 0014;
    2813B : 0019;
    2813C : 0016;
    2813D : 0012;
    2813E : 0017;
    2813F : 0018;
    28140 : 0012;
    28141 : 000E;
    28142 : 000D;
    28143 : 000B;
    28144 : 000B;
    28145 : 000D;
    28146 : 000C;
    28147 : 0011;
    28148 : 000E;
    28149 : 000C;
    2814A : 0009;
    2814B : 0002;
    2814C : FFFD;
    2814D : FFFB;
    2814E : FFFF;
    2814F : FFFD;
    28150 : FFF9;
    28151 : FFF7;
    28152 : FFF5;
    28153 : FFF2;
    28154 : FFF0;
    28155 : FFF1;
    28156 : FFEF;
    28157 : FFEC;
    28158 : FFEC;
    28159 : FFE9;
    2815A : FFDD;
    2815B : FFD5;
    2815C : FFD4;
    2815D : FFD4;
    2815E : FFD7;
    2815F : FFD6;
    28160 : FFD5;
    28161 : FFD5;
    28162 : FFD7;
    28163 : FFD5;
    28164 : FFCF;
    28165 : FFCB;
    28166 : FFCA;
    28167 : FFC9;
    28168 : FFCA;
    28169 : FFC9;
    2816A : FFC6;
    2816B : FFBA;
    2816C : FFB9;
    2816D : FFBC;
    2816E : FFB7;
    2816F : FFB5;
    28170 : FFB4;
    28171 : FFB3;
    28172 : FFAC;
    28173 : FFA1;
    28174 : FF9B;
    28175 : FFA1;
    28176 : FFA7;
    28177 : FFA3;
    28178 : FF9B;
    28179 : FF98;
    2817A : FF91;
    2817B : FF8C;
    2817C : FF89;
    2817D : FF85;
    2817E : FF81;
    2817F : FF79;
    28180 : FF80;
    28181 : FF82;
    28182 : FF81;
    28183 : FF83;
    28184 : FF7E;
    28185 : FF7C;
    28186 : FF7D;
    28187 : FF75;
    28188 : FF71;
    28189 : FF6A;
    2818A : FF64;
    2818B : FF64;
    2818C : FF65;
    2818D : FF68;
    2818E : FF68;
    2818F : FF65;
    28190 : FF65;
    28191 : FF63;
    28192 : FF5D;
    28193 : FF58;
    28194 : FF57;
    28195 : FF59;
    28196 : FF5B;
    28197 : FF61;
    28198 : FF60;
    28199 : FF58;
    2819A : FF50;
    2819B : FF55;
    2819C : FF54;
    2819D : FF50;
    2819E : FF4E;
    2819F : FF4E;
    281A0 : FF52;
    281A1 : FF4E;
    281A2 : FF51;
    281A3 : FF4F;
    281A4 : FF49;
    281A5 : FF48;
    281A6 : FF47;
    281A7 : FF47;
    281A8 : FF49;
    281A9 : FF4D;
    281AA : FF53;
    281AB : FF53;
    281AC : FF4D;
    281AD : FF4B;
    281AE : FF46;
    281AF : FF44;
    281B0 : FF45;
    281B1 : FF42;
    281B2 : FF4A;
    281B3 : FF54;
    281B4 : FF57;
    281B5 : FF5B;
    281B6 : FF5B;
    281B7 : FF57;
    281B8 : FF56;
    281B9 : FF57;
    281BA : FF56;
    281BB : FF56;
    281BC : FF59;
    281BD : FF58;
    281BE : FF5A;
    281BF : FF5D;
    281C0 : FF62;
    281C1 : FF66;
    281C2 : FF6C;
    281C3 : FF72;
    281C4 : FF72;
    281C5 : FF74;
    281C6 : FF76;
    281C7 : FF70;
    281C8 : FF6C;
    281C9 : FF72;
    281CA : FF76;
    281CB : FF77;
    281CC : FF7D;
    281CD : FF88;
    281CE : FF93;
    281CF : FF94;
    281D0 : FF92;
    281D1 : FF8F;
    281D2 : FF8A;
    281D3 : FF8D;
    281D4 : FF8F;
    281D5 : FF94;
    281D6 : FF9B;
    281D7 : FF9E;
    281D8 : FFA1;
    281D9 : FFA9;
    281DA : FFAB;
    281DB : FFAA;
    281DC : FFA9;
    281DD : FFA6;
    281DE : FFAC;
    281DF : FFB0;
    281E0 : FFBB;
    281E1 : FFC2;
    281E2 : FFBF;
    281E3 : FFC1;
    281E4 : FFC2;
    281E5 : FFC4;
    281E6 : FFBC;
    281E7 : FFBD;
    281E8 : FFC0;
    281E9 : FFBE;
    281EA : FFC4;
    281EB : FFCB;
    281EC : FFCF;
    281ED : FFD4;
    281EE : FFD7;
    281EF : FFD5;
    281F0 : FFD7;
    281F1 : FFD5;
    281F2 : FFD5;
    281F3 : FFD9;
    281F4 : FFDC;
    281F5 : FFDD;
    281F6 : FFE5;
    281F7 : FFE6;
    281F8 : FFE6;
    281F9 : FFE5;
    281FA : FFE3;
    281FB : FFE9;
    281FC : FFEB;
    281FD : FFF1;
    281FE : FFF5;
    281FF : FFEF;
    28200 : FFF4;
    28201 : FFF5;
    28202 : FFEB;
    28203 : FFE8;
    28204 : FFEA;
    28205 : FFF4;
    28206 : FFF7;
    28207 : FFF6;
    28208 : FFFD;
    28209 : 0000;
    2820A : FFFB;
    2820B : FFF7;
    2820C : FFEE;
    2820D : FFE8;
    2820E : FFEE;
    2820F : FFF8;
    28210 : FFFE;
    28211 : FFF9;
    28212 : FFF5;
    28213 : FFF0;
    28214 : FFED;
    28215 : FFED;
    28216 : FFEE;
    28217 : FFE9;
    28218 : FFE7;
    28219 : FFEA;
    2821A : FFEF;
    2821B : FFEE;
    2821C : FFEA;
    2821D : FFEA;
    2821E : FFE4;
    2821F : FFDF;
    28220 : FFE4;
    28221 : FFEC;
    28222 : FFF0;
    28223 : FFEF;
    28224 : FFEC;
    28225 : FFE9;
    28226 : FFEA;
    28227 : FFE8;
    28228 : FFE5;
    28229 : FFE1;
    2822A : FFE4;
    2822B : FFE6;
    2822C : FFED;
    2822D : FFEE;
    2822E : FFE5;
    2822F : FFDA;
    28230 : FFE1;
    28231 : FFEE;
    28232 : FFF5;
    28233 : FFF1;
    28234 : FFEC;
    28235 : FFE3;
    28236 : FFD8;
    28237 : FFD6;
    28238 : FFE0;
    28239 : FFF3;
    2823A : FFFC;
    2823B : 0010;
    2823C : 0010;
    2823D : 0003;
    2823E : FFF1;
    2823F : FFDC;
    28240 : FFD4;
    28241 : FFD2;
    28242 : FFDC;
    28243 : FFFD;
    28244 : 001D;
    28245 : 003B;
    28246 : 0046;
    28247 : 003F;
    28248 : 0030;
    28249 : 0018;
    2824A : FFFF;
    2824B : FFEF;
    2824C : FFE7;
    2824D : FFE6;
    2824E : FFEF;
    2824F : 0005;
    28250 : 0013;
    28251 : 001B;
    28252 : 001B;
    28253 : 0017;
    28254 : 000F;
    28255 : 000A;
    28256 : 0002;
    28257 : FFFF;
    28258 : FFF9;
    28259 : FFF9;
    2825A : 0002;
    2825B : 0011;
    2825C : 001B;
    2825D : 0030;
    2825E : 0039;
    2825F : 003B;
    28260 : 003B;
    28261 : 003F;
    28262 : 0043;
    28263 : 0042;
    28264 : 0046;
    28265 : 0049;
    28266 : 004A;
    28267 : 0057;
    28268 : 0067;
    28269 : 0075;
    2826A : 007A;
    2826B : 0078;
    2826C : 006A;
    2826D : 005C;
    2826E : 005D;
    2826F : 0071;
    28270 : 007F;
    28271 : 008F;
    28272 : 009E;
    28273 : 00A3;
    28274 : 00A0;
    28275 : 009E;
    28276 : 009D;
    28277 : 00AD;
    28278 : 00B8;
    28279 : 00C4;
    2827A : 00D0;
    2827B : 00D2;
    2827C : 00D4;
    2827D : 00D4;
    2827E : 00BD;
    2827F : 00BA;
END;
