WIDTH=32;
DEPTH=120000;
ADDRESS_RADIX=HEX;
DATA_RADIX=HEX;
CONTENT BEGIN
    0 : 00000000;
    1 : 00000000;
    2 : 00000000;
    3 : 00000000;
    4 : 00000000;
    5 : 00000000;
    6 : 00000000;
    7 : 00000000;
    8 : 00000000;
    9 : 00000000;
    A : 00000000;
    B : 00000000;
    C : 00000000;
    D : 00000000;
    E : 00000000;
    F : 00000000;
    10 : 00000000;
    11 : 00000000;
    12 : 00000000;
    13 : 00000000;
    14 : 00000000;
    15 : 00000000;
    16 : 00000000;
    17 : 00000000;
    18 : 00000000;
    19 : 00000000;
    1A : 00000000;
    1B : 00000000;
    1C : 00000000;
    1D : 00000000;
    1E : 00000000;
    1F : 00000000;
    20 : 00000000;
    21 : 00000000;
    22 : 00000000;
    23 : 00000000;
    24 : 00000000;
    25 : 00000000;
    26 : 00000000;
    27 : 00000000;
    28 : 00000000;
    29 : 00000000;
    2A : 00000000;
    2B : 00000000;
    2C : 00000000;
    2D : 00000000;
    2E : 00000000;
    2F : 00000000;
    30 : 00000000;
    31 : 00000000;
    32 : 00000000;
    33 : 00000000;
    34 : 00000000;
    35 : 00000000;
    36 : 00000000;
    37 : 00000000;
    38 : 00000000;
    39 : 00000000;
    3A : 00000000;
    3B : 00000000;
    3C : 00000000;
    3D : 00000000;
    3E : 00000000;
    3F : 00000000;
    40 : 00000000;
    41 : 00000000;
    42 : 00000000;
    43 : 00000000;
    44 : 00000000;
    45 : 00000000;
    46 : 00000000;
    47 : 00000000;
    48 : 00000000;
    49 : 00000000;
    4A : 00000000;
    4B : 00000000;
    4C : 00000000;
    4D : 00000000;
    4E : 00000000;
    4F : 00000000;
    50 : 00000000;
    51 : 00000000;
    52 : 00000000;
    53 : 00000000;
    54 : 00000000;
    55 : 00000000;
    56 : 00000000;
    57 : 00000000;
    58 : 00000000;
    59 : 00000000;
    5A : 00000000;
    5B : 00000000;
    5C : 00000000;
    5D : 00000000;
    5E : 00000000;
    5F : 00000000;
    60 : 00000000;
    61 : 00000000;
    62 : 00000000;
    63 : 00000000;
    64 : 00000000;
    65 : 00000000;
    66 : 00000000;
    67 : 00000000;
    68 : 00000000;
    69 : 00000000;
    6A : 00000000;
    6B : 00000000;
    6C : 00000000;
    6D : 00000000;
    6E : 00000000;
    6F : 00000000;
    70 : 00000000;
    71 : 00000000;
    72 : 00000000;
    73 : 00000000;
    74 : 00000000;
    75 : 00000000;
    76 : 00000000;
    77 : 00000000;
    78 : 00000000;
    79 : 00000000;
    7A : 00000000;
    7B : 00000000;
    7C : 00000000;
    7D : 00000000;
    7E : 00000000;
    7F : 00000000;
    80 : 00000000;
    81 : 00000000;
    82 : 00000000;
    83 : 00000000;
    84 : 00000000;
    85 : 00000000;
    86 : 00000000;
    87 : 00000000;
    88 : 00000000;
    89 : 00000000;
    8A : 00000000;
    8B : 00000000;
    8C : 00000000;
    8D : 00000000;
    8E : 00000000;
    8F : 00000000;
    90 : 00000000;
    91 : 00000000;
    92 : 00000000;
    93 : 00000000;
    94 : 00000000;
    95 : 00000000;
    96 : 00000000;
    97 : 00000000;
    98 : 00000000;
    99 : 00000000;
    9A : 00000000;
    9B : 00000000;
    9C : 00000000;
    9D : 00000000;
    9E : 00000000;
    9F : 00000000;
    A0 : 00000000;
    A1 : 00000000;
    A2 : 00000000;
    A3 : 00000000;
    A4 : 00000000;
    A5 : 00000000;
    A6 : 00000000;
    A7 : 00000000;
    A8 : 00000000;
    A9 : 00000000;
    AA : 00000000;
    AB : 00000000;
    AC : 00000000;
    AD : 00000000;
    AE : 00000000;
    AF : 00000000;
    B0 : 00000000;
    B1 : 00000000;
    B2 : 00000000;
    B3 : 00000000;
    B4 : 00000000;
    B5 : 00000000;
    B6 : 00000000;
    B7 : 00000000;
    B8 : 00000000;
    B9 : 00000000;
    BA : 00000000;
    BB : 00000000;
    BC : 00000000;
    BD : 00000000;
    BE : 00000000;
    BF : 00000000;
    C0 : 00000000;
    C1 : 00000000;
    C2 : 00000000;
    C3 : 00000000;
    C4 : 00000000;
    C5 : 00000000;
    C6 : 00000000;
    C7 : 00000000;
    C8 : 00000000;
    C9 : 00000000;
    CA : 00000000;
    CB : 00000000;
    CC : 00000000;
    CD : 00000000;
    CE : 00000000;
    CF : 00000000;
    D0 : 00000000;
    D1 : 00000000;
    D2 : 00000000;
    D3 : 00000000;
    D4 : 00000000;
    D5 : 00000000;
    D6 : 00000000;
    D7 : 00000000;
    D8 : 00000000;
    D9 : 00000000;
    DA : 00000000;
    DB : 00000000;
    DC : 00000000;
    DD : 00000000;
    DE : 00000000;
    DF : 00000000;
    E0 : 00000000;
    E1 : 00000000;
    E2 : 00000000;
    E3 : 00000000;
    E4 : 00000000;
    E5 : 00000000;
    E6 : 00000000;
    E7 : 00000000;
    E8 : 00000000;
    E9 : 00000000;
    EA : 00000000;
    EB : 00000000;
    EC : 00000000;
    ED : 00000000;
    EE : 00000000;
    EF : 00000000;
    F0 : 00000000;
    F1 : 00000000;
    F2 : 00000000;
    F3 : 00000000;
    F4 : 00000000;
    F5 : 00000000;
    F6 : 00000000;
    F7 : 00000000;
    F8 : 00000000;
    F9 : 00000000;
    FA : 00000000;
    FB : 00000000;
    FC : 00000000;
    FD : 00000000;
    FE : 00000000;
    FF : 00000000;
    100 : 00000000;
    101 : 00000000;
    102 : 00000000;
    103 : 00000000;
    104 : 00000000;
    105 : 00000000;
    106 : 00000000;
    107 : 00000000;
    108 : 00000000;
    109 : 00000000;
    10A : 00000000;
    10B : 00000000;
    10C : 00000000;
    10D : 00000000;
    10E : 00000000;
    10F : 00000000;
    110 : 00000000;
    111 : 00000000;
    112 : 00000000;
    113 : 00000000;
    114 : 00000000;
    115 : 00000000;
    116 : 00000000;
    117 : 00000000;
    118 : 00000000;
    119 : 00000000;
    11A : 00000000;
    11B : 00000000;
    11C : 00000000;
    11D : 00000000;
    11E : 00000000;
    11F : 00000000;
    120 : 00000000;
    121 : 00000000;
    122 : 00000000;
    123 : 00000000;
    124 : 00000000;
    125 : 00000000;
    126 : 00000000;
    127 : 00000000;
    128 : 00000000;
    129 : 00000000;
    12A : 00000000;
    12B : 00000000;
    12C : 00000000;
    12D : 00000000;
    12E : 00000000;
    12F : 00000000;
    130 : 00000000;
    131 : 00000000;
    132 : 00000000;
    133 : 00000000;
    134 : 00000000;
    135 : 00000000;
    136 : 00000000;
    137 : 00000000;
    138 : 00000000;
    139 : 00000000;
    13A : 00000000;
    13B : 00000000;
    13C : 00000000;
    13D : 00000000;
    13E : 00000000;
    13F : 00000000;
    140 : 00000000;
    141 : 00000000;
    142 : 00000000;
    143 : 00000000;
    144 : 00000000;
    145 : 00000000;
    146 : 00000000;
    147 : 00000000;
    148 : 00000000;
    149 : 00000000;
    14A : 00000000;
    14B : 00000000;
    14C : 00000000;
    14D : 00000000;
    14E : 00000000;
    14F : 00000000;
    150 : 00000000;
    151 : 00000000;
    152 : 00000000;
    153 : 00000000;
    154 : 00000000;
    155 : 00000000;
    156 : 00000000;
    157 : 00000000;
    158 : 00000000;
    159 : 00000000;
    15A : 00000000;
    15B : 00000000;
    15C : 00000000;
    15D : 00000000;
    15E : 00000000;
    15F : 00000000;
    160 : 00000000;
    161 : 00000000;
    162 : 00000000;
    163 : 00000000;
    164 : 00000000;
    165 : 00000000;
    166 : 00000000;
    167 : 00000000;
    168 : 00000000;
    169 : 00000000;
    16A : 00000000;
    16B : 00000000;
    16C : 00000000;
    16D : 00000000;
    16E : 00000000;
    16F : 00000000;
    170 : 00000000;
    171 : 00000000;
    172 : 00000000;
    173 : 00000000;
    174 : 00000000;
    175 : 00000000;
    176 : 00000000;
    177 : 00000000;
    178 : 00000000;
    179 : 00000000;
    17A : 00000000;
    17B : 00000000;
    17C : 00000000;
    17D : 00000000;
    17E : 00000000;
    17F : 00000000;
    180 : 00000000;
    181 : 00000000;
    182 : 00000000;
    183 : 00000000;
    184 : 00000000;
    185 : 00000000;
    186 : 00000000;
    187 : 00000000;
    188 : 00000000;
    189 : 00000000;
    18A : 00000000;
    18B : 00000000;
    18C : 00000000;
    18D : 00000000;
    18E : 00000000;
    18F : 00000000;
    190 : 00000000;
    191 : 00000000;
    192 : 00000000;
    193 : 00000000;
    194 : 00000000;
    195 : 00000000;
    196 : 00000000;
    197 : 00000000;
    198 : 00000000;
    199 : 00000000;
    19A : 00000000;
    19B : 00000000;
    19C : 00000000;
    19D : 00000000;
    19E : 00000000;
    19F : 00000000;
    1A0 : 00000000;
    1A1 : 00000000;
    1A2 : 00000000;
    1A3 : 00000000;
    1A4 : 00000000;
    1A5 : 00000000;
    1A6 : 00000000;
    1A7 : 00000000;
    1A8 : 00000000;
    1A9 : 00000000;
    1AA : 00000000;
    1AB : 00000000;
    1AC : 00000000;
    1AD : 00000000;
    1AE : 00000000;
    1AF : 00000000;
    1B0 : 00000000;
    1B1 : 00000000;
    1B2 : 00000000;
    1B3 : 00000000;
    1B4 : 00000000;
    1B5 : 00000000;
    1B6 : 00000000;
    1B7 : 00000000;
    1B8 : 00000000;
    1B9 : 00000000;
    1BA : 00000000;
    1BB : 00000000;
    1BC : 00000000;
    1BD : 00000000;
    1BE : 00000000;
    1BF : 00000000;
    1C0 : 00000000;
    1C1 : 00000000;
    1C2 : 00000000;
    1C3 : 00000000;
    1C4 : 00000000;
    1C5 : 00000000;
    1C6 : 00000000;
    1C7 : 00000000;
    1C8 : 00000000;
    1C9 : 00000000;
    1CA : 00000000;
    1CB : 00000000;
    1CC : 00000000;
    1CD : 00000000;
    1CE : 00000000;
    1CF : 00000000;
    1D0 : 00000000;
    1D1 : 00000000;
    1D2 : 00000000;
    1D3 : 00000000;
    1D4 : 00000000;
    1D5 : 00000000;
    1D6 : 00000000;
    1D7 : 00000000;
    1D8 : 00000000;
    1D9 : 00000000;
    1DA : 00000000;
    1DB : 00000000;
    1DC : 00000000;
    1DD : 00000000;
    1DE : 00000000;
    1DF : 00000000;
    1E0 : 00000000;
    1E1 : 00000000;
    1E2 : 00000000;
    1E3 : 00000000;
    1E4 : 00000000;
    1E5 : 00000000;
    1E6 : 00000000;
    1E7 : 00000000;
    1E8 : 00000000;
    1E9 : 00000000;
    1EA : 00000000;
    1EB : 00000000;
    1EC : 00000000;
    1ED : 00000000;
    1EE : 00000000;
    1EF : 00000000;
    1F0 : 00000000;
    1F1 : 00000000;
    1F2 : 00000000;
    1F3 : 00000000;
    1F4 : 00000000;
    1F5 : 00000000;
    1F6 : 00000000;
    1F7 : 00000000;
    1F8 : 00000000;
    1F9 : 00000000;
    1FA : 00000000;
    1FB : 00000000;
    1FC : 00000000;
    1FD : 00000000;
    1FE : 00000000;
    1FF : 00000000;
    200 : 00000000;
    201 : 00000000;
    202 : 00000000;
    203 : 00000000;
    204 : 00000000;
    205 : 00000000;
    206 : 00000000;
    207 : 00000000;
    208 : 00000000;
    209 : 00000000;
    20A : 00000000;
    20B : 00000000;
    20C : 00000000;
    20D : 00000000;
    20E : 00000000;
    20F : 00000000;
    210 : 00000000;
    211 : 00000000;
    212 : 00000000;
    213 : 00000000;
    214 : 00000000;
    215 : 00000000;
    216 : 00000000;
    217 : 00000000;
    218 : 00000000;
    219 : 00000000;
    21A : 00000000;
    21B : 00000000;
    21C : 00000000;
    21D : 00000000;
    21E : 00000000;
    21F : 00000000;
    220 : 00000000;
    221 : 00000000;
    222 : 00000000;
    223 : 00000000;
    224 : 00000000;
    225 : 00000000;
    226 : 00000000;
    227 : 00000000;
    228 : 00000000;
    229 : 00000000;
    22A : 00000000;
    22B : 00000000;
    22C : 00000000;
    22D : 00000000;
    22E : 00000000;
    22F : 00000000;
    230 : 00000000;
    231 : 00000000;
    232 : 00000000;
    233 : 00000000;
    234 : 00000000;
    235 : 00000000;
    236 : 00000000;
    237 : 00000000;
    238 : 00000000;
    239 : 00000000;
    23A : 00000000;
    23B : 00000000;
    23C : 00000000;
    23D : 00000000;
    23E : 00000000;
    23F : 00000000;
    240 : 00000000;
    241 : 00000000;
    242 : 00000000;
    243 : 00000000;
    244 : 00000000;
    245 : 00000000;
    246 : 00000000;
    247 : 00000000;
    248 : 00000000;
    249 : 00000000;
    24A : 00000000;
    24B : 00000000;
    24C : 00000000;
    24D : 00000000;
    24E : 00000000;
    24F : 00000000;
    250 : 00000000;
    251 : 00000000;
    252 : 00000000;
    253 : 00000000;
    254 : 00000000;
    255 : 00000000;
    256 : 00000000;
    257 : 00000000;
    258 : 00000000;
    259 : 00000000;
    25A : 00000000;
    25B : 00000000;
    25C : 00000000;
    25D : 00000000;
    25E : 00000000;
    25F : 00000000;
    260 : 00000000;
    261 : 00000000;
    262 : 00000000;
    263 : 00000000;
    264 : 00000000;
    265 : 00000000;
    266 : 00000000;
    267 : 00000000;
    268 : 00000000;
    269 : 00000000;
    26A : 00000000;
    26B : 00000000;
    26C : 00000000;
    26D : 00000000;
    26E : 00000000;
    26F : 00000000;
    270 : 00000000;
    271 : 00000000;
    272 : 00000000;
    273 : 00000000;
    274 : 00000000;
    275 : 00000000;
    276 : 00000000;
    277 : 00000000;
    278 : 00000000;
    279 : 00000000;
    27A : 00000000;
    27B : 00000000;
    27C : 00000000;
    27D : 00000000;
    27E : 00000000;
    27F : 00000000;
    280 : 00000000;
    281 : 00000000;
    282 : 00000000;
    283 : 00000000;
    284 : 00000000;
    285 : 00000000;
    286 : 00000000;
    287 : 00000000;
    288 : 00000000;
    289 : 00000000;
    28A : 00000000;
    28B : 00000000;
    28C : 00000000;
    28D : 00000000;
    28E : 00000000;
    28F : 00000000;
    290 : 00000000;
    291 : 00000000;
    292 : 00000000;
    293 : 00000000;
    294 : 00000000;
    295 : 00000000;
    296 : 00000000;
    297 : 00000000;
    298 : 00000000;
    299 : 00000000;
    29A : 00000000;
    29B : 00000000;
    29C : 00000000;
    29D : 00000000;
    29E : 00000000;
    29F : 00000000;
    2A0 : 00000000;
    2A1 : 00000000;
    2A2 : 00000000;
    2A3 : 00000000;
    2A4 : 00000000;
    2A5 : 00000000;
    2A6 : 00000000;
    2A7 : 00000000;
    2A8 : 00000000;
    2A9 : 00000000;
    2AA : 00000000;
    2AB : 00000000;
    2AC : 00000000;
    2AD : 00000000;
    2AE : 00000000;
    2AF : 00000000;
    2B0 : 00000000;
    2B1 : 00000000;
    2B2 : 00000000;
    2B3 : 00000000;
    2B4 : 00000000;
    2B5 : 00000000;
    2B6 : 00000000;
    2B7 : 00000000;
    2B8 : 00000000;
    2B9 : 00000000;
    2BA : 00000000;
    2BB : 00000000;
    2BC : 00000000;
    2BD : 00000000;
    2BE : 00000000;
    2BF : 00000000;
    2C0 : 00000000;
    2C1 : 00000000;
    2C2 : 00000000;
    2C3 : 00000000;
    2C4 : 00000000;
    2C5 : 00000000;
    2C6 : 00000000;
    2C7 : 00000000;
    2C8 : 00000000;
    2C9 : 00000000;
    2CA : 00000000;
    2CB : 00000000;
    2CC : 00000000;
    2CD : 00000000;
    2CE : 00000000;
    2CF : 00000000;
    2D0 : 00000000;
    2D1 : 00000000;
    2D2 : 00000000;
    2D3 : 00000000;
    2D4 : 00000000;
    2D5 : 00000000;
    2D6 : 00000000;
    2D7 : 00000000;
    2D8 : 00000000;
    2D9 : 00000000;
    2DA : 00000000;
    2DB : 00000000;
    2DC : 00000000;
    2DD : 00000000;
    2DE : 00000000;
    2DF : 00000000;
    2E0 : 00000000;
    2E1 : 00000000;
    2E2 : 00000000;
    2E3 : 00000000;
    2E4 : 00000000;
    2E5 : 00000000;
    2E6 : 00000000;
    2E7 : 00000000;
    2E8 : 00000000;
    2E9 : 00000000;
    2EA : 00000000;
    2EB : 00000000;
    2EC : 00000000;
    2ED : 00000000;
    2EE : 00000000;
    2EF : 00000000;
    2F0 : 00000000;
    2F1 : 00000000;
    2F2 : 00000000;
    2F3 : 00000000;
    2F4 : 00000000;
    2F5 : 00000000;
    2F6 : 00000000;
    2F7 : 00000000;
    2F8 : 00000000;
    2F9 : 00000000;
    2FA : 00000000;
    2FB : 00000000;
    2FC : 00000000;
    2FD : 00000000;
    2FE : 00000000;
    2FF : 00000000;
    300 : 00000000;
    301 : 00000000;
    302 : 00000000;
    303 : 00000000;
    304 : 00000000;
    305 : 00000000;
    306 : 00000000;
    307 : 00000000;
    308 : 00000000;
    309 : 00000000;
    30A : 00000000;
    30B : 00000000;
    30C : 00000000;
    30D : 00000000;
    30E : 00000000;
    30F : 00000000;
    310 : 00000000;
    311 : 00000000;
    312 : 00000000;
    313 : 00000000;
    314 : 00000000;
    315 : 00000000;
    316 : 00000000;
    317 : 00000000;
    318 : 00000000;
    319 : 00000000;
    31A : 00000000;
    31B : 00000000;
    31C : 00000000;
    31D : 00000000;
    31E : 00000000;
    31F : 00000000;
    320 : 00000000;
    321 : 00000000;
    322 : 00000000;
    323 : 00000000;
    324 : 00000000;
    325 : 00000000;
    326 : 00000000;
    327 : 00000000;
    328 : 00000000;
    329 : 00000000;
    32A : 00000000;
    32B : 00000000;
    32C : 00000000;
    32D : 00000000;
    32E : 00000000;
    32F : 00000000;
    330 : 00000000;
    331 : 00000000;
    332 : 00000000;
    333 : 00000000;
    334 : 00000000;
    335 : 00000000;
    336 : 00000000;
    337 : 00000000;
    338 : 00000000;
    339 : 00000000;
    33A : 00000000;
    33B : 00000000;
    33C : 00000000;
    33D : 00000000;
    33E : 00000000;
    33F : 00000000;
    340 : 00000000;
    341 : 00000000;
    342 : 00000000;
    343 : 00000000;
    344 : 00000000;
    345 : 00000000;
    346 : 00000000;
    347 : 00000000;
    348 : 00000000;
    349 : 00000000;
    34A : 00000000;
    34B : 00000000;
    34C : 00000000;
    34D : 00000000;
    34E : 00000000;
    34F : 00000000;
    350 : 00000000;
    351 : 00000000;
    352 : 00000000;
    353 : 00000000;
    354 : 00000000;
    355 : 00000000;
    356 : 00000000;
    357 : 00000000;
    358 : 00000000;
    359 : 00000000;
    35A : 00000000;
    35B : 00000000;
    35C : 00000000;
    35D : 00000000;
    35E : 00000000;
    35F : 00000000;
    360 : 00000000;
    361 : 00000000;
    362 : 00000000;
    363 : 00000000;
    364 : 00000000;
    365 : 00000000;
    366 : 00000000;
    367 : 00000000;
    368 : 00000000;
    369 : 00000000;
    36A : 00000000;
    36B : 00000000;
    36C : 00000000;
    36D : 00000000;
    36E : 00000000;
    36F : 00000000;
    370 : 00000000;
    371 : 00000000;
    372 : 00000000;
    373 : 00000000;
    374 : 00000000;
    375 : 00000000;
    376 : 00000000;
    377 : 00000000;
    378 : 00000000;
    379 : 00000000;
    37A : 00000000;
    37B : 00000000;
    37C : 00000000;
    37D : 00000000;
    37E : 00000000;
    37F : 00000000;
    380 : 00000000;
    381 : 00000000;
    382 : 00000000;
    383 : 00000000;
    384 : 00000000;
    385 : 00000000;
    386 : 00000000;
    387 : 00000000;
    388 : 00000000;
    389 : 00000000;
    38A : 00000000;
    38B : 00000000;
    38C : 00000000;
    38D : 00000000;
    38E : 00000000;
    38F : 00000000;
    390 : 00000000;
    391 : 00000000;
    392 : 00000000;
    393 : 00000000;
    394 : 00000000;
    395 : 00000000;
    396 : 00000000;
    397 : 00000000;
    398 : 00000000;
    399 : 00000000;
    39A : 00000000;
    39B : 00000000;
    39C : 00000000;
    39D : 00000000;
    39E : 00000000;
    39F : 00000000;
    3A0 : 00000000;
    3A1 : 00000000;
    3A2 : 00000000;
    3A3 : 00000000;
    3A4 : 00000000;
    3A5 : 00000000;
    3A6 : 00000000;
    3A7 : 00000000;
    3A8 : 00000000;
    3A9 : 00000000;
    3AA : 00000000;
    3AB : 00000000;
    3AC : 00000000;
    3AD : 00000000;
    3AE : 00000000;
    3AF : 00000000;
    3B0 : 00000000;
    3B1 : 00000000;
    3B2 : 00000000;
    3B3 : 00000000;
    3B4 : 00000000;
    3B5 : 00000000;
    3B6 : 00000000;
    3B7 : 00000000;
    3B8 : 00000000;
    3B9 : 00000000;
    3BA : 00000000;
    3BB : 00000000;
    3BC : 00000000;
    3BD : 00000000;
    3BE : 00000000;
    3BF : 00000000;
    3C0 : 00000000;
    3C1 : 00000000;
    3C2 : 00000000;
    3C3 : 00000000;
    3C4 : 00000000;
    3C5 : 00000000;
    3C6 : 00000000;
    3C7 : 00000000;
    3C8 : 00000000;
    3C9 : 00000000;
    3CA : 00000000;
    3CB : 00000000;
    3CC : 00000000;
    3CD : 00000000;
    3CE : 00000000;
    3CF : 00000000;
    3D0 : 00000000;
    3D1 : 00000000;
    3D2 : 00000000;
    3D3 : 00000000;
    3D4 : 00000000;
    3D5 : 00000000;
    3D6 : 00000000;
    3D7 : 00000000;
    3D8 : 00000000;
    3D9 : 00000000;
    3DA : 00000000;
    3DB : 00000000;
    3DC : 00000000;
    3DD : 00000000;
    3DE : 00000000;
    3DF : 00000000;
    3E0 : 00000000;
    3E1 : 00000000;
    3E2 : 00000000;
    3E3 : 00000000;
    3E4 : 00000000;
    3E5 : 00000000;
    3E6 : 00000000;
    3E7 : 00000000;
    3E8 : 00000000;
    3E9 : 00000000;
    3EA : 00000000;
    3EB : 00000000;
    3EC : 00000000;
    3ED : 00000000;
    3EE : 00000000;
    3EF : 00000000;
    3F0 : 00000000;
    3F1 : 00000000;
    3F2 : 00000000;
    3F3 : 00000000;
    3F4 : 00000000;
    3F5 : 00000000;
    3F6 : 00000000;
    3F7 : 00000000;
    3F8 : 00000000;
    3F9 : 00000000;
    3FA : 00000000;
    3FB : 00000000;
    3FC : 00000000;
    3FD : 00000000;
    3FE : 00000000;
    3FF : 00000000;
    400 : 00000000;
    401 : 00000000;
    402 : 00000000;
    403 : 00000000;
    404 : 00000000;
    405 : 00000000;
    406 : 00000000;
    407 : 00000000;
    408 : 00000000;
    409 : 00000000;
    40A : 00000000;
    40B : 00000000;
    40C : 00000000;
    40D : 00000000;
    40E : 00000000;
    40F : 00000000;
    410 : 00000000;
    411 : 00000000;
    412 : 00000000;
    413 : 00000000;
    414 : 00000000;
    415 : 00000000;
    416 : 00000000;
    417 : 00000000;
    418 : 00000000;
    419 : 00000000;
    41A : 00000000;
    41B : 00000000;
    41C : 00000000;
    41D : 00000000;
    41E : 00000000;
    41F : 00000000;
    420 : 00000000;
    421 : 00000000;
    422 : 00000000;
    423 : 00000000;
    424 : 00000000;
    425 : 00000000;
    426 : 00000000;
    427 : 00000000;
    428 : 00000000;
    429 : 00000000;
    42A : 00000000;
    42B : 00000000;
    42C : 00000000;
    42D : 00000000;
    42E : 00000000;
    42F : 00000000;
    430 : 00000000;
    431 : 00000000;
    432 : 00000000;
    433 : 00000000;
    434 : 00000000;
    435 : 00000000;
    436 : 00000000;
    437 : 00000000;
    438 : 00000000;
    439 : 00000000;
    43A : 00000000;
    43B : 00000000;
    43C : 00000000;
    43D : 00000000;
    43E : 00000000;
    43F : 00000000;
    440 : 00000000;
    441 : 00000000;
    442 : 00000000;
    443 : 00000000;
    444 : 00000000;
    445 : 00000000;
    446 : 00000000;
    447 : 00000000;
    448 : 00000000;
    449 : 00000000;
    44A : 00000000;
    44B : 00000000;
    44C : 00000000;
    44D : 00000000;
    44E : 00000000;
    44F : 00000000;
    450 : 00000000;
    451 : 00000000;
    452 : 00000000;
    453 : 00000000;
    454 : 00000000;
    455 : 00000000;
    456 : 00000000;
    457 : 00000000;
    458 : 00000000;
    459 : 00000000;
    45A : 00000000;
    45B : 00000000;
    45C : 00000000;
    45D : 00000000;
    45E : 00000000;
    45F : 00000000;
    460 : 00000000;
    461 : 00000000;
    462 : 00000000;
    463 : 00000000;
    464 : 00000000;
    465 : 00000000;
    466 : 00000000;
    467 : 00000000;
    468 : 00000000;
    469 : 00000000;
    46A : 00000000;
    46B : 00000000;
    46C : 00000000;
    46D : 00000000;
    46E : 00000000;
    46F : 00000000;
    470 : 00000000;
    471 : 00000000;
    472 : 00000000;
    473 : 00000000;
    474 : 00000000;
    475 : 00000000;
    476 : 00000000;
    477 : 00000000;
    478 : 00000000;
    479 : 00000000;
    47A : 00000000;
    47B : 00000000;
    47C : 00000000;
    47D : 00000000;
    47E : 00000000;
    47F : 00000000;
    480 : 00000000;
    481 : 00000000;
    482 : 00000000;
    483 : 00000000;
    484 : 00000000;
    485 : 00000000;
    486 : 00000000;
    487 : 00000000;
    488 : 00000000;
    489 : 00000000;
    48A : 00000000;
    48B : 00000000;
    48C : 00000000;
    48D : 00000000;
    48E : 00000000;
    48F : 00000000;
    490 : 00000000;
    491 : 00000000;
    492 : 00000000;
    493 : 00000000;
    494 : 00000000;
    495 : 00000000;
    496 : 00000000;
    497 : 00000000;
    498 : 00000000;
    499 : 00000000;
    49A : 00000000;
    49B : 00000000;
    49C : 00000000;
    49D : 00000000;
    49E : 00000000;
    49F : 00000000;
    4A0 : 00000000;
    4A1 : 00000000;
    4A2 : 00000000;
    4A3 : 00000000;
    4A4 : 00000000;
    4A5 : 00000000;
    4A6 : 00000000;
    4A7 : 00000000;
    4A8 : 00000000;
    4A9 : 00000000;
    4AA : 00000000;
    4AB : 00000000;
    4AC : 00000000;
    4AD : 00000000;
    4AE : 00000000;
    4AF : 00000000;
    4B0 : 00000000;
    4B1 : 00000000;
    4B2 : 00000000;
    4B3 : 00000000;
    4B4 : 00000000;
    4B5 : 00000000;
    4B6 : 00000000;
    4B7 : 00000000;
    4B8 : 00000000;
    4B9 : 00000000;
    4BA : 00000000;
    4BB : 00000000;
    4BC : 00000000;
    4BD : 00000000;
    4BE : 00000000;
    4BF : 00000000;
    4C0 : 00000000;
    4C1 : 00000000;
    4C2 : 00000000;
    4C3 : 00000000;
    4C4 : 00000000;
    4C5 : 00000000;
    4C6 : 00000000;
    4C7 : 00000000;
    4C8 : 00000000;
    4C9 : 00000000;
    4CA : 00000000;
    4CB : 00000000;
    4CC : 00000000;
    4CD : 00000000;
    4CE : 00000000;
    4CF : 00000000;
    4D0 : 00000000;
    4D1 : 00000000;
    4D2 : 00000000;
    4D3 : 00000000;
    4D4 : 00000000;
    4D5 : 00000000;
    4D6 : 00000000;
    4D7 : 00000000;
    4D8 : 00000000;
    4D9 : 00000000;
    4DA : 00000000;
    4DB : 00000000;
    4DC : 00000000;
    4DD : 00000000;
    4DE : 00000000;
    4DF : 00000000;
    4E0 : 00000000;
    4E1 : 00000000;
    4E2 : 00000000;
    4E3 : 00000000;
    4E4 : 00000000;
    4E5 : 00000000;
    4E6 : 00000000;
    4E7 : 00000000;
    4E8 : 00000000;
    4E9 : 00000000;
    4EA : 00000000;
    4EB : 00000000;
    4EC : 00000000;
    4ED : 00000000;
    4EE : 00000000;
    4EF : 00000000;
    4F0 : 00000000;
    4F1 : 00000000;
    4F2 : 00000000;
    4F3 : 00000000;
    4F4 : 00000000;
    4F5 : 00000000;
    4F6 : 00000000;
    4F7 : 00000000;
    4F8 : 00000000;
    4F9 : 00000000;
    4FA : 00000000;
    4FB : 00000000;
    4FC : 00000000;
    4FD : 00000000;
    4FE : 00000000;
    4FF : 00000000;
    500 : 00000000;
    501 : 00000000;
    502 : 00000000;
    503 : 00000000;
    504 : 00000000;
    505 : 00000000;
    506 : 00000000;
    507 : 00000000;
    508 : 00000000;
    509 : 00000000;
    50A : 00000000;
    50B : 00000000;
    50C : 00000000;
    50D : 00000000;
    50E : 00000000;
    50F : 00000000;
    510 : 00000000;
    511 : 00000000;
    512 : 00000000;
    513 : 00000000;
    514 : 00000000;
    515 : 00000000;
    516 : 00000000;
    517 : 00000000;
    518 : 00000000;
    519 : 00000000;
    51A : 00000000;
    51B : 00000000;
    51C : 00000000;
    51D : 00000000;
    51E : 00000000;
    51F : 00000000;
    520 : 00000000;
    521 : 00000000;
    522 : 00000000;
    523 : 00000000;
    524 : 00000000;
    525 : 00000000;
    526 : 00000000;
    527 : 00000000;
    528 : 00000000;
    529 : 00000000;
    52A : 00000000;
    52B : 00000000;
    52C : 00000000;
    52D : 00000000;
    52E : 00000000;
    52F : 00000000;
    530 : 00000000;
    531 : 00000000;
    532 : 00000000;
    533 : 00000000;
    534 : 00000000;
    535 : 00000000;
    536 : 00000000;
    537 : 00000000;
    538 : 00000000;
    539 : 00000000;
    53A : 00000000;
    53B : 00000000;
    53C : 00000000;
    53D : 00000000;
    53E : 00000000;
    53F : 00000000;
    540 : 00000000;
    541 : 00000000;
    542 : 00000000;
    543 : 00000000;
    544 : 00000000;
    545 : 00000000;
    546 : 00000000;
    547 : 00000000;
    548 : 00000000;
    549 : 00000000;
    54A : 00000000;
    54B : 00000000;
    54C : 00000000;
    54D : 00000000;
    54E : 00000000;
    54F : 00000000;
    550 : 00000000;
    551 : 00000000;
    552 : 00000000;
    553 : 00000000;
    554 : 00000000;
    555 : 00000000;
    556 : 00000000;
    557 : 00000000;
    558 : 00000000;
    559 : 00000000;
    55A : 00000000;
    55B : 00000000;
    55C : 00000000;
    55D : 00000000;
    55E : 00000000;
    55F : 00000000;
    560 : 00000000;
    561 : 00000000;
    562 : 00000000;
    563 : 00000000;
    564 : 00000000;
    565 : 00000000;
    566 : 00000000;
    567 : 00000000;
    568 : 00000000;
    569 : 00000000;
    56A : 00000000;
    56B : 00000000;
    56C : 00000000;
    56D : 00000000;
    56E : 00000000;
    56F : 00000000;
    570 : 00000000;
    571 : 00000000;
    572 : 00000000;
    573 : 00000000;
    574 : 00000000;
    575 : 00000000;
    576 : 00000000;
    577 : 00000000;
    578 : 00000000;
    579 : 00000000;
    57A : 00000000;
    57B : 00000000;
    57C : 00000000;
    57D : 00000000;
    57E : 00000000;
    57F : 00000000;
    580 : 00000000;
    581 : 00000000;
    582 : 00000000;
    583 : 00000000;
    584 : 00000000;
    585 : 00000000;
    586 : 00000000;
    587 : 00000000;
    588 : 00000000;
    589 : 00000000;
    58A : 00000000;
    58B : 00000000;
    58C : 00000000;
    58D : 00000000;
    58E : 00000000;
    58F : 00000000;
    590 : 00000000;
    591 : 00000000;
    592 : 00000000;
    593 : 00000000;
    594 : 00000000;
    595 : 00000000;
    596 : 00000000;
    597 : 00000000;
    598 : 00000000;
    599 : 00000000;
    59A : 00000000;
    59B : 00000000;
    59C : 00000000;
    59D : 00000000;
    59E : 00000000;
    59F : 00000000;
    5A0 : 00000000;
    5A1 : 00000000;
    5A2 : 00000000;
    5A3 : 00000000;
    5A4 : 00000000;
    5A5 : 00000000;
    5A6 : 00000000;
    5A7 : 00000000;
    5A8 : 00000000;
    5A9 : 00000000;
    5AA : 00000000;
    5AB : 00000000;
    5AC : 00000000;
    5AD : 00000000;
    5AE : 00000000;
    5AF : 00000000;
    5B0 : 00000000;
    5B1 : 00000000;
    5B2 : 00000000;
    5B3 : 00000000;
    5B4 : 00000000;
    5B5 : 00000000;
    5B6 : 00000000;
    5B7 : 00000000;
    5B8 : 00000000;
    5B9 : 00000000;
    5BA : 00000000;
    5BB : 00000000;
    5BC : 00000000;
    5BD : 00000000;
    5BE : 00000000;
    5BF : 00000000;
    5C0 : 00000000;
    5C1 : 00000000;
    5C2 : 00000000;
    5C3 : 00000000;
    5C4 : 00000000;
    5C5 : 00000000;
    5C6 : 00000000;
    5C7 : 00000000;
    5C8 : 00000000;
    5C9 : 00000000;
    5CA : 00000000;
    5CB : 00000000;
    5CC : 00000000;
    5CD : 00000000;
    5CE : 00000000;
    5CF : 00000000;
    5D0 : 00000000;
    5D1 : 00000000;
    5D2 : 00000000;
    5D3 : 00000000;
    5D4 : 00000000;
    5D5 : 00000000;
    5D6 : 00000000;
    5D7 : 00000000;
    5D8 : 00000000;
    5D9 : 00000000;
    5DA : 00000000;
    5DB : 00000000;
    5DC : 00000000;
    5DD : 00000000;
    5DE : 00000000;
    5DF : 00000000;
    5E0 : 00000000;
    5E1 : 00000000;
    5E2 : 00000000;
    5E3 : 00000000;
    5E4 : 00000000;
    5E5 : 00000000;
    5E6 : 00000000;
    5E7 : 00000000;
    5E8 : 00000000;
    5E9 : 00000000;
    5EA : 00000000;
    5EB : 00000000;
    5EC : 00000000;
    5ED : 00000000;
    5EE : 00000000;
    5EF : 00000000;
    5F0 : 00000000;
    5F1 : 00000000;
    5F2 : 00000000;
    5F3 : 00000000;
    5F4 : 00000000;
    5F5 : 00000000;
    5F6 : 00000000;
    5F7 : 00000000;
    5F8 : 00000000;
    5F9 : 00000000;
    5FA : 00000000;
    5FB : 00000000;
    5FC : 00000000;
    5FD : 00000000;
    5FE : 00000000;
    5FF : 00000000;
    600 : 00000000;
    601 : 00000000;
    602 : 00000000;
    603 : 00000000;
    604 : 00000000;
    605 : 00000000;
    606 : 00000000;
    607 : 00000000;
    608 : 00000000;
    609 : 00000000;
    60A : 00000000;
    60B : 00000000;
    60C : 00000000;
    60D : 00000000;
    60E : 00000000;
    60F : 00000000;
    610 : 00000000;
    611 : 00000000;
    612 : 00000000;
    613 : 00000000;
    614 : 00000000;
    615 : 00000000;
    616 : 00000000;
    617 : 00000000;
    618 : 00000000;
    619 : 00000000;
    61A : 00000000;
    61B : 00000000;
    61C : 00000000;
    61D : 00000000;
    61E : 00000000;
    61F : 00000000;
    620 : 00000000;
    621 : 00000000;
    622 : 00000000;
    623 : 00000000;
    624 : 00000000;
    625 : 00000000;
    626 : 00000000;
    627 : 00000000;
    628 : 00000000;
    629 : 00000000;
    62A : 00000000;
    62B : 00000000;
    62C : 00000000;
    62D : 00000000;
    62E : 00000000;
    62F : 00000000;
    630 : 00000000;
    631 : 00000000;
    632 : 00000000;
    633 : 00000000;
    634 : 00000000;
    635 : 00000000;
    636 : 00000000;
    637 : 00000000;
    638 : 00000000;
    639 : 00000000;
    63A : 00000000;
    63B : 00000000;
    63C : 00000000;
    63D : 00000000;
    63E : 00000000;
    63F : 00000000;
    640 : 00000000;
    641 : 00000000;
    642 : 00000000;
    643 : 00000000;
    644 : 00000000;
    645 : 00000000;
    646 : 00000000;
    647 : 00000000;
    648 : 00000000;
    649 : 00000000;
    64A : 00000000;
    64B : 00000000;
    64C : 00000000;
    64D : 00000000;
    64E : 00000000;
    64F : 00000000;
    650 : 00000000;
    651 : 00000000;
    652 : 00000000;
    653 : 00000000;
    654 : 00000000;
    655 : 00000000;
    656 : 00000000;
    657 : 00000000;
    658 : 00000000;
    659 : 00000000;
    65A : 00000000;
    65B : 00000000;
    65C : 00000000;
    65D : 00000000;
    65E : 00000000;
    65F : 00000000;
    660 : 00000000;
    661 : 00000000;
    662 : 00000000;
    663 : 00000000;
    664 : 00000000;
    665 : 00000000;
    666 : 00000000;
    667 : 00000000;
    668 : 00000000;
    669 : 00000000;
    66A : 00000000;
    66B : 00000000;
    66C : 00000000;
    66D : 00000000;
    66E : 00000000;
    66F : 00000000;
    670 : 00000000;
    671 : 00000000;
    672 : 00000000;
    673 : 00000000;
    674 : 00000000;
    675 : 00000000;
    676 : 00000000;
    677 : 00000000;
    678 : 00000000;
    679 : 00000000;
    67A : 00000000;
    67B : 00000000;
    67C : 00000000;
    67D : 00000000;
    67E : 00000000;
    67F : 00000000;
    680 : 00000000;
    681 : 00000000;
    682 : 00000000;
    683 : 00000000;
    684 : 00000000;
    685 : 00000000;
    686 : 00000000;
    687 : 00000000;
    688 : 00000000;
    689 : 00000000;
    68A : 00000000;
    68B : 00000000;
    68C : 00000000;
    68D : 00000000;
    68E : 00000000;
    68F : 00000000;
    690 : 00000000;
    691 : 00000000;
    692 : 00000000;
    693 : 00000000;
    694 : 00000000;
    695 : 00000000;
    696 : 00000000;
    697 : 00000000;
    698 : 00000000;
    699 : 00000000;
    69A : 00000000;
    69B : 00000000;
    69C : 00000000;
    69D : 00000000;
    69E : 00000000;
    69F : 00000000;
    6A0 : 00000000;
    6A1 : 00000000;
    6A2 : 00000000;
    6A3 : 00000000;
    6A4 : 00000000;
    6A5 : 00000000;
    6A6 : 00000000;
    6A7 : 00000000;
    6A8 : 00000000;
    6A9 : 00000000;
    6AA : 00000000;
    6AB : 00000000;
    6AC : 00000000;
    6AD : 00000000;
    6AE : 00000000;
    6AF : 00000000;
    6B0 : 00000000;
    6B1 : 00000000;
    6B2 : 00000000;
    6B3 : 00000000;
    6B4 : 00000000;
    6B5 : 00000000;
    6B6 : 00000000;
    6B7 : 00000000;
    6B8 : 00000000;
    6B9 : 00000000;
    6BA : 00000000;
    6BB : 00000000;
    6BC : 00000000;
    6BD : 00000000;
    6BE : 00000000;
    6BF : 00000000;
    6C0 : 00000000;
    6C1 : 00000000;
    6C2 : 00000000;
    6C3 : 00000000;
    6C4 : 00000000;
    6C5 : 00000000;
    6C6 : 00000000;
    6C7 : 00000000;
    6C8 : 00000000;
    6C9 : 00000000;
    6CA : 00000000;
    6CB : 00000000;
    6CC : 00000000;
    6CD : 00000000;
    6CE : 00000000;
    6CF : 00000000;
    6D0 : 00000000;
    6D1 : 00000000;
    6D2 : 00000000;
    6D3 : 00000000;
    6D4 : 00000000;
    6D5 : 00000000;
    6D6 : 00000000;
    6D7 : 00000000;
    6D8 : 00000000;
    6D9 : 00000000;
    6DA : 00000000;
    6DB : 00000000;
    6DC : 00000000;
    6DD : 00000000;
    6DE : 00000000;
    6DF : 00000000;
    6E0 : 00000000;
    6E1 : 00000000;
    6E2 : 00000000;
    6E3 : 00000000;
    6E4 : 00000000;
    6E5 : 00000000;
    6E6 : 00000000;
    6E7 : 00000000;
    6E8 : 00000000;
    6E9 : 00000000;
    6EA : 00000000;
    6EB : 00000000;
    6EC : 00000000;
    6ED : 00000000;
    6EE : 00000000;
    6EF : 00000000;
    6F0 : 00000000;
    6F1 : 00000000;
    6F2 : 00000000;
    6F3 : 00000000;
    6F4 : 00000000;
    6F5 : 00000000;
    6F6 : 00000000;
    6F7 : 00000000;
    6F8 : 00000000;
    6F9 : 00000000;
    6FA : 00000000;
    6FB : 00000000;
    6FC : 00000000;
    6FD : 00000000;
    6FE : 00000000;
    6FF : 00000000;
    700 : 00000000;
    701 : 00000000;
    702 : 00000000;
    703 : 00000000;
    704 : 00000000;
    705 : 00000000;
    706 : 00000000;
    707 : 00000000;
    708 : 00000000;
    709 : 00000000;
    70A : 00000000;
    70B : 00000000;
    70C : 00000000;
    70D : 00000000;
    70E : 00000000;
    70F : 00000000;
    710 : 00000000;
    711 : 00000000;
    712 : 00000000;
    713 : 00000000;
    714 : 00000000;
    715 : 00000000;
    716 : 00000000;
    717 : 00000000;
    718 : 00000000;
    719 : 00000000;
    71A : 00000000;
    71B : 00000000;
    71C : 00000000;
    71D : 00000000;
    71E : 00000000;
    71F : 00000000;
    720 : 00000000;
    721 : 00000000;
    722 : 00000000;
    723 : 00000000;
    724 : 00000000;
    725 : 00000000;
    726 : 00000000;
    727 : 00000000;
    728 : 00000000;
    729 : 00000000;
    72A : 00000000;
    72B : 00000000;
    72C : 00000000;
    72D : 00000000;
    72E : 00000000;
    72F : 00000000;
    730 : 00000000;
    731 : 00000000;
    732 : 00000000;
    733 : 00000000;
    734 : 00000000;
    735 : 00000000;
    736 : 00000000;
    737 : 00000000;
    738 : 00000000;
    739 : 00000000;
    73A : 00000000;
    73B : 00000000;
    73C : 00000000;
    73D : 00000000;
    73E : 00000000;
    73F : 00000000;
    740 : 00000000;
    741 : 00000000;
    742 : 00000000;
    743 : 00000000;
    744 : 00000000;
    745 : 00000000;
    746 : 00000000;
    747 : 00000000;
    748 : 00000000;
    749 : 00000000;
    74A : 00000000;
    74B : 00000000;
    74C : 00000000;
    74D : 00000000;
    74E : 00000000;
    74F : 00000000;
    750 : 00000000;
    751 : 00000000;
    752 : 00000000;
    753 : 00000000;
    754 : 00000000;
    755 : 00000000;
    756 : 00000000;
    757 : 00000000;
    758 : 00000000;
    759 : 00000000;
    75A : 00000000;
    75B : 00000000;
    75C : 00000000;
    75D : 00000000;
    75E : 00000000;
    75F : 00000000;
    760 : 00000000;
    761 : 00000000;
    762 : 00000000;
    763 : 00000000;
    764 : 00000000;
    765 : 00000000;
    766 : 00000000;
    767 : 00000000;
    768 : 00000000;
    769 : 00000000;
    76A : 00000000;
    76B : 00000000;
    76C : 00000000;
    76D : 00000000;
    76E : 00000000;
    76F : 00000000;
    770 : 00000000;
    771 : 00000000;
    772 : 00000000;
    773 : 00000000;
    774 : 00000000;
    775 : 00000000;
    776 : 00000000;
    777 : 00000000;
    778 : 00000000;
    779 : 00000000;
    77A : 00000000;
    77B : 00000000;
    77C : 00000000;
    77D : 00000000;
    77E : 00000000;
    77F : 00000000;
    780 : 00000000;
    781 : 00000000;
    782 : 00000000;
    783 : 00000000;
    784 : 00000000;
    785 : 00000000;
    786 : 00000000;
    787 : 00000000;
    788 : 00000000;
    789 : 00000000;
    78A : 00000000;
    78B : 00000000;
    78C : 00000000;
    78D : 00000000;
    78E : 00000000;
    78F : 00000000;
    790 : 00000000;
    791 : 00000000;
    792 : 00000000;
    793 : 00000000;
    794 : 00000000;
    795 : 00000000;
    796 : 00000000;
    797 : 00000000;
    798 : 00000000;
    799 : 00000000;
    79A : 00000000;
    79B : 00000000;
    79C : 00000000;
    79D : 00000000;
    79E : 00000000;
    79F : 00000000;
    7A0 : 00000000;
    7A1 : 00000000;
    7A2 : 00000000;
    7A3 : 00000000;
    7A4 : 00000000;
    7A5 : 00000000;
    7A6 : 00000000;
    7A7 : 00000000;
    7A8 : 00000000;
    7A9 : 00000000;
    7AA : 00000000;
    7AB : 00000000;
    7AC : 00000000;
    7AD : 00000000;
    7AE : 00000000;
    7AF : 00000000;
    7B0 : 00000000;
    7B1 : 00000000;
    7B2 : 00000000;
    7B3 : 00000000;
    7B4 : 00000000;
    7B5 : 00000000;
    7B6 : 00000000;
    7B7 : 00000000;
    7B8 : 00000000;
    7B9 : 00000000;
    7BA : 00000000;
    7BB : 00000000;
    7BC : 00000000;
    7BD : 00000000;
    7BE : 00000000;
    7BF : 00000000;
    7C0 : 00000000;
    7C1 : 00000000;
    7C2 : 00000000;
    7C3 : 00000000;
    7C4 : 00000000;
    7C5 : 00000000;
    7C6 : 00000000;
    7C7 : 00000000;
    7C8 : 00000000;
    7C9 : 00000000;
    7CA : 00000000;
    7CB : 00000000;
    7CC : 00000000;
    7CD : 00000000;
    7CE : 00000000;
    7CF : 00000000;
    7D0 : 00000000;
    7D1 : 00000000;
    7D2 : 00000000;
    7D3 : 00000000;
    7D4 : 00000000;
    7D5 : 00000000;
    7D6 : 00000000;
    7D7 : 00000000;
    7D8 : 00000000;
    7D9 : 00000000;
    7DA : 00000000;
    7DB : 00000000;
    7DC : 00000000;
    7DD : 00000000;
    7DE : 00000000;
    7DF : 00000000;
    7E0 : 00000000;
    7E1 : 00000000;
    7E2 : 00000000;
    7E3 : 00000000;
    7E4 : 00000000;
    7E5 : 00000000;
    7E6 : 00000000;
    7E7 : 00000000;
    7E8 : 00000000;
    7E9 : 00000000;
    7EA : 00000000;
    7EB : 00000000;
    7EC : 00000000;
    7ED : 00000000;
    7EE : 00000000;
    7EF : 00000000;
    7F0 : 00000000;
    7F1 : 00000000;
    7F2 : 00000000;
    7F3 : 00000000;
    7F4 : 00000000;
    7F5 : 00000000;
    7F6 : 00000000;
    7F7 : 00000000;
    7F8 : 00000000;
    7F9 : 00000000;
    7FA : 00000000;
    7FB : 00000000;
    7FC : 00000000;
    7FD : 00000000;
    7FE : 00000000;
    7FF : 00000000;
    800 : 00000000;
    801 : 00000000;
    802 : 00000000;
    803 : 00000000;
    804 : 00000000;
    805 : 00000000;
    806 : 00000000;
    807 : 00000000;
    808 : 00000000;
    809 : 00000000;
    80A : 00000000;
    80B : 00000000;
    80C : 00000000;
    80D : 00000000;
    80E : 00000000;
    80F : 00000000;
    810 : 00000000;
    811 : 00000000;
    812 : 00000000;
    813 : 00000000;
    814 : 00000000;
    815 : 00000000;
    816 : 00000000;
    817 : 00000000;
    818 : 00000000;
    819 : 00000000;
    81A : 00000000;
    81B : 00000000;
    81C : 00000000;
    81D : 00000000;
    81E : 00000000;
    81F : 00000000;
    820 : 00000000;
    821 : 00000000;
    822 : 00000000;
    823 : 00000000;
    824 : 00000000;
    825 : 00000000;
    826 : 00000000;
    827 : 00000000;
    828 : 00000000;
    829 : 00000000;
    82A : 00000000;
    82B : 00000000;
    82C : 00000000;
    82D : 00000000;
    82E : 00000000;
    82F : 00000000;
    830 : 00000000;
    831 : 00000000;
    832 : 00000000;
    833 : 00000000;
    834 : 00000000;
    835 : 00000000;
    836 : 00000000;
    837 : 00000000;
    838 : 00000000;
    839 : 00000000;
    83A : 00000000;
    83B : 00000000;
    83C : 00000000;
    83D : 00000000;
    83E : 00000000;
    83F : 00000000;
    840 : 00000000;
    841 : 00000000;
    842 : 00000000;
    843 : 00000000;
    844 : 00000000;
    845 : 00000000;
    846 : 00000000;
    847 : 00000000;
    848 : 00000000;
    849 : 00000000;
    84A : 00000000;
    84B : 00000000;
    84C : 00000000;
    84D : 00000000;
    84E : 00000000;
    84F : 00000000;
    850 : 00000000;
    851 : 00000000;
    852 : 00000000;
    853 : 00000000;
    854 : 00000000;
    855 : 00000000;
    856 : 00000000;
    857 : 00000000;
    858 : 00000000;
    859 : 00000000;
    85A : 00000000;
    85B : 00000000;
    85C : 00000000;
    85D : 00000000;
    85E : 00000000;
    85F : 00000000;
    860 : 00000000;
    861 : 00000000;
    862 : 00000000;
    863 : 00000000;
    864 : 00000000;
    865 : 00000000;
    866 : 00000000;
    867 : 00000000;
    868 : 00000000;
    869 : 00000000;
    86A : 00000000;
    86B : 00000000;
    86C : 00000000;
    86D : 00000000;
    86E : 00000000;
    86F : 00000000;
    870 : 00000000;
    871 : 00000000;
    872 : 00000000;
    873 : 00000000;
    874 : 00000000;
    875 : 00000000;
    876 : 00000000;
    877 : 00000000;
    878 : 00000000;
    879 : 00000000;
    87A : 00000000;
    87B : 00000000;
    87C : 00000000;
    87D : 00000000;
    87E : 00000000;
    87F : 00000000;
    880 : 00000000;
    881 : 00000000;
    882 : 00000000;
    883 : 00000000;
    884 : 00000000;
    885 : 00000000;
    886 : 00000000;
    887 : 00000000;
    888 : 00000000;
    889 : 00000000;
    88A : 00000000;
    88B : 00000000;
    88C : 00000000;
    88D : 00000000;
    88E : 00000000;
    88F : 00000000;
    890 : 00000000;
    891 : 00000000;
    892 : 00000000;
    893 : 00000000;
    894 : 00000000;
    895 : 00000000;
    896 : 00000000;
    897 : 00000000;
    898 : 00000000;
    899 : 00000000;
    89A : 00000000;
    89B : 00000000;
    89C : 00000000;
    89D : 00000000;
    89E : 00000000;
    89F : 00000000;
    8A0 : 00000000;
    8A1 : 00000000;
    8A2 : 00000000;
    8A3 : 00000000;
    8A4 : 00000000;
    8A5 : 00000000;
    8A6 : 00000000;
    8A7 : 00000000;
    8A8 : 00000000;
    8A9 : 00000000;
    8AA : 00000000;
    8AB : 00000000;
    8AC : 00000000;
    8AD : 00000000;
    8AE : 00000000;
    8AF : 00000000;
    8B0 : 00000000;
    8B1 : 00000000;
    8B2 : 00000000;
    8B3 : 00000000;
    8B4 : 00000000;
    8B5 : 00000000;
    8B6 : 00000000;
    8B7 : 00000000;
    8B8 : 00000000;
    8B9 : 00000000;
    8BA : 00000000;
    8BB : 00000000;
    8BC : 00000000;
    8BD : 00000000;
    8BE : 00000000;
    8BF : 00000000;
    8C0 : 00000000;
    8C1 : 00000000;
    8C2 : 00000000;
    8C3 : 00000000;
    8C4 : 00000000;
    8C5 : 00000000;
    8C6 : 00000000;
    8C7 : 00000000;
    8C8 : 00000000;
    8C9 : 00000000;
    8CA : 00000000;
    8CB : 00000000;
    8CC : 00000000;
    8CD : 00000000;
    8CE : 00000000;
    8CF : 00000000;
    8D0 : 00000000;
    8D1 : 00000000;
    8D2 : 00000000;
    8D3 : 00000000;
    8D4 : 00000000;
    8D5 : 00000000;
    8D6 : 00000000;
    8D7 : 00000000;
    8D8 : 00000000;
    8D9 : 00000000;
    8DA : 00000000;
    8DB : 00000000;
    8DC : 00000000;
    8DD : 00000000;
    8DE : 00000000;
    8DF : 00000000;
    8E0 : 00000000;
    8E1 : 00000000;
    8E2 : 00000000;
    8E3 : 00000000;
    8E4 : 00000000;
    8E5 : 00000000;
    8E6 : 00000000;
    8E7 : 00000000;
    8E8 : 00000000;
    8E9 : 00000000;
    8EA : 00000000;
    8EB : 00000000;
    8EC : 00000000;
    8ED : 00000000;
    8EE : 00000000;
    8EF : 00000000;
    8F0 : 00000000;
    8F1 : 00000000;
    8F2 : 00000000;
    8F3 : 00000000;
    8F4 : 00000000;
    8F5 : 00000000;
    8F6 : 00000002;
    8F7 : 00000007;
    8F8 : 0000000A;
    8F9 : 0000000C;
    8FA : 00000010;
    8FB : 00000013;
    8FC : 00000014;
    8FD : 00000014;
    8FE : 00000012;
    8FF : 0000000F;
    900 : 0000000C;
    901 : 0000000A;
    902 : 00000006;
    903 : 00000001;
    904 : 00000000;
    905 : 00000000;
    906 : 00000000;
    907 : 00000000;
    908 : 00000000;
    909 : 00000000;
    90A : 00000000;
    90B : 00000000;
    90C : 00000000;
    90D : 00000000;
    90E : 00000000;
    90F : 00000000;
    910 : 00000000;
    911 : 00000000;
    912 : 00000000;
    913 : 00000000;
    914 : 00000000;
    915 : 00000000;
    916 : 00000000;
    917 : 00000000;
    918 : 00000000;
    919 : 00000000;
    91A : 00000000;
    91B : 00000000;
    91C : 00000000;
    91D : 00000000;
    91E : 00000000;
    91F : 00000000;
    920 : 00000000;
    921 : 00000000;
    922 : 00000000;
    923 : 00000000;
    924 : 00000000;
    925 : 00000000;
    926 : 00000000;
    927 : 00000000;
    928 : 00000000;
    929 : 00000000;
    92A : 00000000;
    92B : 00000000;
    92C : 00000000;
    92D : 00000000;
    92E : 00000000;
    92F : 00000000;
    930 : 00000000;
    931 : 00000000;
    932 : 00000000;
    933 : 00000000;
    934 : 00000000;
    935 : 00000000;
    936 : 00000000;
    937 : 00000000;
    938 : 00000000;
    939 : 00000000;
    93A : 00000000;
    93B : 00000000;
    93C : 00000000;
    93D : 00000000;
    93E : 00000000;
    93F : 00000000;
    940 : 00000000;
    941 : 00000000;
    942 : 00000000;
    943 : 00000000;
    944 : 00000000;
    945 : 00000000;
    946 : 00000000;
    947 : 00000000;
    948 : 00000000;
    949 : 00000000;
    94A : 00000000;
    94B : 00000000;
    94C : 00000000;
    94D : 00000000;
    94E : 00000000;
    94F : 00000000;
    950 : 00000000;
    951 : 00000000;
    952 : 00000000;
    953 : 00000000;
    954 : 00000000;
    955 : 00000000;
    956 : 00000000;
    957 : 00000000;
    958 : 00000000;
    959 : 00000000;
    95A : 00000000;
    95B : 00000000;
    95C : 00000000;
    95D : 00000000;
    95E : 00000000;
    95F : 00000000;
    960 : 00000000;
    961 : 00000000;
    962 : 00000000;
    963 : 00000000;
    964 : 00000000;
    965 : 00000000;
    966 : 00000000;
    967 : 00000000;
    968 : 00000000;
    969 : 00000000;
    96A : 00000000;
    96B : 00000000;
    96C : 00000000;
    96D : 00000000;
    96E : 00000000;
    96F : 00000000;
    970 : 00000000;
    971 : 00000000;
    972 : 00000000;
    973 : 00000000;
    974 : 00000000;
    975 : 00000000;
    976 : 00000000;
    977 : 00000000;
    978 : 00000000;
    979 : 00000000;
    97A : 00000000;
    97B : 00000000;
    97C : 00000000;
    97D : 00000000;
    97E : 00000000;
    97F : 00000000;
    980 : 00000000;
    981 : 00000000;
    982 : 00000000;
    983 : 00000000;
    984 : 00000000;
    985 : 00000000;
    986 : 00000000;
    987 : 00000000;
    988 : 00000000;
    989 : 00000000;
    98A : 00000000;
    98B : 00000000;
    98C : 00000000;
    98D : 00000000;
    98E : 00000000;
    98F : 00000000;
    990 : 00000000;
    991 : 00000000;
    992 : 00000000;
    993 : 00000000;
    994 : 00000000;
    995 : 00000000;
    996 : 00000000;
    997 : 00000000;
    998 : 00000000;
    999 : 00000000;
    99A : 00000000;
    99B : 00000000;
    99C : 00000000;
    99D : 00000000;
    99E : 00000000;
    99F : 00000000;
    9A0 : 00000000;
    9A1 : 00000000;
    9A2 : 00000000;
    9A3 : 00000000;
    9A4 : 00000000;
    9A5 : 00000000;
    9A6 : 00000000;
    9A7 : 00000000;
    9A8 : 00000000;
    9A9 : 00000000;
    9AA : 00000000;
    9AB : 00000000;
    9AC : 00000000;
    9AD : 00000000;
    9AE : 00000000;
    9AF : 00000000;
    9B0 : 00000000;
    9B1 : 00000000;
    9B2 : 00000000;
    9B3 : 00000000;
    9B4 : 00000000;
    9B5 : 00000000;
    9B6 : 00000003;
    9B7 : 00000010;
    9B8 : 00000021;
    9B9 : 00000038;
    9BA : 0000004F;
    9BB : 00000068;
    9BC : 0000007D;
    9BD : 00000092;
    9BE : 000000A1;
    9BF : 000000B1;
    9C0 : 000000BC;
    9C1 : 000000C1;
    9C2 : 000000C7;
    9C3 : 000000CC;
    9C4 : 000000CF;
    9C5 : 000000CE;
    9C6 : 000000CB;
    9C7 : 000000C6;
    9C8 : 000000C1;
    9C9 : 000000BB;
    9CA : 000000AE;
    9CB : 0000009E;
    9CC : 0000008E;
    9CD : 00000079;
    9CE : 00000063;
    9CF : 0000004A;
    9D0 : 00000033;
    9D1 : 0000001D;
    9D2 : 0000000D;
    9D3 : 00000002;
    9D4 : 00000000;
    9D5 : 00000000;
    9D6 : 00000000;
    9D7 : 00000000;
    9D8 : 00000000;
    9D9 : 00000000;
    9DA : 00000000;
    9DB : 00000000;
    9DC : 00000000;
    9DD : 00000000;
    9DE : 00000000;
    9DF : 00000000;
    9E0 : 00000000;
    9E1 : 00000000;
    9E2 : 00000000;
    9E3 : 00000000;
    9E4 : 00000000;
    9E5 : 00000000;
    9E6 : 00000000;
    9E7 : 00000000;
    9E8 : 00000000;
    9E9 : 00000000;
    9EA : 00000000;
    9EB : 00000000;
    9EC : 00000000;
    9ED : 00000000;
    9EE : 00000000;
    9EF : 00000000;
    9F0 : 00000000;
    9F1 : 00000000;
    9F2 : 00000000;
    9F3 : 00000000;
    9F4 : 00000000;
    9F5 : 00000000;
    9F6 : 00000000;
    9F7 : 00000000;
    9F8 : 00000000;
    9F9 : 00000000;
    9FA : 00000000;
    9FB : 00000000;
    9FC : 00000000;
    9FD : 00000000;
    9FE : 00000000;
    9FF : 00000000;
    A00 : 00000000;
    A01 : 00000000;
    A02 : 00000000;
    A03 : 00000000;
    A04 : 00000000;
    A05 : 00000000;
    A06 : 00000000;
    A07 : 00000000;
    A08 : 00000000;
    A09 : 00000000;
    A0A : 00000000;
    A0B : 00000000;
    A0C : 00000000;
    A0D : 00000000;
    A0E : 00000000;
    A0F : 00000000;
    A10 : 00000000;
    A11 : 00000000;
    A12 : 00000000;
    A13 : 00000000;
    A14 : 00000000;
    A15 : 00000000;
    A16 : 00000000;
    A17 : 00000000;
    A18 : 00000000;
    A19 : 00000000;
    A1A : 00000000;
    A1B : 00000000;
    A1C : 00000000;
    A1D : 00000000;
    A1E : 00000000;
    A1F : 00000000;
    A20 : 00000000;
    A21 : 00000000;
    A22 : 00000000;
    A23 : 00000000;
    A24 : 00000000;
    A25 : 00000000;
    A26 : 00000000;
    A27 : 00000000;
    A28 : 00000000;
    A29 : 00000000;
    A2A : 00000000;
    A2B : 00000000;
    A2C : 00000000;
    A2D : 00000000;
    A2E : 00000000;
    A2F : 00000000;
    A30 : 00000000;
    A31 : 00000000;
    A32 : 00000000;
    A33 : 00000000;
    A34 : 00000000;
    A35 : 00000000;
    A36 : 00000000;
    A37 : 00000000;
    A38 : 00000000;
    A39 : 00000000;
    A3A : 00000000;
    A3B : 00000000;
    A3C : 00000000;
    A3D : 00000000;
    A3E : 00000000;
    A3F : 00000000;
    A40 : 00000000;
    A41 : 00000000;
    A42 : 00000000;
    A43 : 00000000;
    A44 : 00000000;
    A45 : 00000000;
    A46 : 00000000;
    A47 : 00000000;
    A48 : 00000000;
    A49 : 00000000;
    A4A : 00000000;
    A4B : 00000000;
    A4C : 00000000;
    A4D : 00000000;
    A4E : 00000000;
    A4F : 00000000;
    A50 : 00000000;
    A51 : 00000000;
    A52 : 00000000;
    A53 : 00000000;
    A54 : 00000000;
    A55 : 00000000;
    A56 : 00000000;
    A57 : 00000000;
    A58 : 00000000;
    A59 : 00000000;
    A5A : 00000000;
    A5B : 00000000;
    A5C : 00000000;
    A5D : 00000000;
    A5E : 00000000;
    A5F : 00000000;
    A60 : 00000000;
    A61 : 00000000;
    A62 : 00000000;
    A63 : 00000000;
    A64 : 00000000;
    A65 : 00000000;
    A66 : 00000000;
    A67 : 00000000;
    A68 : 00000000;
    A69 : 00000000;
    A6A : 00000000;
    A6B : 00000000;
    A6C : 00000000;
    A6D : 00000000;
    A6E : 00000000;
    A6F : 00000000;
    A70 : 00000000;
    A71 : 00000000;
    A72 : 00000000;
    A73 : 00000000;
    A74 : 00000000;
    A75 : 00000000;
    A76 : 00000000;
    A77 : 00000000;
    A78 : 00000000;
    A79 : 00000005;
    A7A : 00000017;
    A7B : 00000035;
    A7C : 0000005A;
    A7D : 00000083;
    A7E : 000000A9;
    A7F : 000000C9;
    A80 : 000000E0;
    A81 : 000000F0;
    A82 : 000000F9;
    A83 : 000000FF;
    A84 : 000000FF;
    A85 : 000000FF;
    A86 : 000000FF;
    A87 : 000000FF;
    A88 : 000000FF;
    A89 : 000000FF;
    A8A : 000000FF;
    A8B : 000000FF;
    A8C : 000000FF;
    A8D : 000000FF;
    A8E : 000000FF;
    A8F : 000000FF;
    A90 : 000000FF;
    A91 : 000000FF;
    A92 : 000000FF;
    A93 : 000000FF;
    A94 : 000000FF;
    A95 : 000000FF;
    A96 : 000000FE;
    A97 : 000000F8;
    A98 : 000000ED;
    A99 : 000000DC;
    A9A : 000000C3;
    A9B : 000000A2;
    A9C : 0000007A;
    A9D : 00000052;
    A9E : 0000002F;
    A9F : 00000013;
    AA0 : 00000003;
    AA1 : 00000000;
    AA2 : 00000000;
    AA3 : 00000000;
    AA4 : 00000000;
    AA5 : 00000000;
    AA6 : 00000000;
    AA7 : 00000000;
    AA8 : 00000000;
    AA9 : 00000000;
    AAA : 00000000;
    AAB : 00000000;
    AAC : 00000000;
    AAD : 00000000;
    AAE : 00000000;
    AAF : 00000000;
    AB0 : 00000000;
    AB1 : 00000000;
    AB2 : 00000000;
    AB3 : 00000000;
    AB4 : 00000000;
    AB5 : 00000000;
    AB6 : 00000000;
    AB7 : 00000000;
    AB8 : 00000000;
    AB9 : 00000000;
    ABA : 00000000;
    ABB : 00000000;
    ABC : 00000000;
    ABD : 00000000;
    ABE : 00000000;
    ABF : 00000000;
    AC0 : 00000000;
    AC1 : 00000000;
    AC2 : 00000000;
    AC3 : 00000000;
    AC4 : 00000000;
    AC5 : 00000000;
    AC6 : 00000000;
    AC7 : 00000000;
    AC8 : 00000000;
    AC9 : 00000000;
    ACA : 00000000;
    ACB : 00000000;
    ACC : 00000000;
    ACD : 00000000;
    ACE : 00000000;
    ACF : 00000000;
    AD0 : 00000000;
    AD1 : 00000000;
    AD2 : 00000000;
    AD3 : 00000000;
    AD4 : 00000000;
    AD5 : 00000000;
    AD6 : 00000000;
    AD7 : 00000000;
    AD8 : 00000000;
    AD9 : 00000000;
    ADA : 00000000;
    ADB : 00000000;
    ADC : 00000000;
    ADD : 00000000;
    ADE : 00000000;
    ADF : 00000000;
    AE0 : 00000000;
    AE1 : 00000000;
    AE2 : 00000000;
    AE3 : 00000000;
    AE4 : 00000000;
    AE5 : 00000000;
    AE6 : 00000000;
    AE7 : 00000000;
    AE8 : 00000000;
    AE9 : 00000000;
    AEA : 00000000;
    AEB : 00000000;
    AEC : 00000000;
    AED : 00000000;
    AEE : 00000000;
    AEF : 00000000;
    AF0 : 00000000;
    AF1 : 00000000;
    AF2 : 00000000;
    AF3 : 00000000;
    AF4 : 00000000;
    AF5 : 00000000;
    AF6 : 00000000;
    AF7 : 00000000;
    AF8 : 00000000;
    AF9 : 00000000;
    AFA : 00000000;
    AFB : 00000000;
    AFC : 00000000;
    AFD : 00000000;
    AFE : 00000000;
    AFF : 00000000;
    B00 : 00000000;
    B01 : 00000000;
    B02 : 00000000;
    B03 : 00000000;
    B04 : 00000000;
    B05 : 00000000;
    B06 : 00000000;
    B07 : 00000000;
    B08 : 00000000;
    B09 : 00000000;
    B0A : 00000000;
    B0B : 00000000;
    B0C : 00000000;
    B0D : 00000000;
    B0E : 00000000;
    B0F : 00000000;
    B10 : 00000000;
    B11 : 00000000;
    B12 : 00000000;
    B13 : 00000000;
    B14 : 00000000;
    B15 : 00000000;
    B16 : 00000000;
    B17 : 00000000;
    B18 : 00000000;
    B19 : 00000000;
    B1A : 00000000;
    B1B : 00000000;
    B1C : 00000000;
    B1D : 00000000;
    B1E : 00000000;
    B1F : 00000000;
    B20 : 00000000;
    B21 : 00000000;
    B22 : 00000000;
    B23 : 00000000;
    B24 : 00000000;
    B25 : 00000000;
    B26 : 00000000;
    B27 : 00000000;
    B28 : 00000000;
    B29 : 00000000;
    B2A : 00000000;
    B2B : 00000000;
    B2C : 00000000;
    B2D : 00000000;
    B2E : 00000000;
    B2F : 00000000;
    B30 : 00000000;
    B31 : 00000000;
    B32 : 00000000;
    B33 : 00000000;
    B34 : 00000000;
    B35 : 00000000;
    B36 : 00000000;
    B37 : 00000000;
    B38 : 00000000;
    B39 : 00000000;
    B3A : 00000000;
    B3B : 00000000;
    B3C : 00000000;
    B3D : 00000005;
    B3E : 0000001D;
    B3F : 00000046;
    B40 : 00000078;
    B41 : 000000AA;
    B42 : 000000D1;
    B43 : 000000ED;
    B44 : 000000FC;
    B45 : 000000FF;
    B46 : 000000FF;
    B47 : 000000FF;
    B48 : 000000FF;
    B49 : 000000FF;
    B4A : 000000FF;
    B4B : 000000FF;
    B4C : 000000FF;
    B4D : 000000FF;
    B4E : 000000FF;
    B4F : 000000FF;
    B50 : 000000FF;
    B51 : 000000FF;
    B52 : 000000FF;
    B53 : 000000FF;
    B54 : 000000FF;
    B55 : 000000FF;
    B56 : 000000FF;
    B57 : 000000FF;
    B58 : 000000FF;
    B59 : 000000FF;
    B5A : 000000FF;
    B5B : 000000FF;
    B5C : 000000FF;
    B5D : 000000FF;
    B5E : 000000FF;
    B5F : 000000FF;
    B60 : 000000FF;
    B61 : 000000FF;
    B62 : 000000FF;
    B63 : 000000FF;
    B64 : 000000FF;
    B65 : 000000FA;
    B66 : 000000E9;
    B67 : 000000CA;
    B68 : 000000A1;
    B69 : 0000006E;
    B6A : 0000003C;
    B6B : 00000017;
    B6C : 00000002;
    B6D : 00000000;
    B6E : 00000000;
    B6F : 00000000;
    B70 : 00000000;
    B71 : 00000000;
    B72 : 00000000;
    B73 : 00000000;
    B74 : 00000000;
    B75 : 00000000;
    B76 : 00000000;
    B77 : 00000000;
    B78 : 00000000;
    B79 : 00000000;
    B7A : 00000000;
    B7B : 00000000;
    B7C : 00000000;
    B7D : 00000000;
    B7E : 00000000;
    B7F : 00000000;
    B80 : 00000000;
    B81 : 00000000;
    B82 : 00000000;
    B83 : 00000000;
    B84 : 00000000;
    B85 : 00000000;
    B86 : 00000000;
    B87 : 00000000;
    B88 : 00000000;
    B89 : 00000000;
    B8A : 00000000;
    B8B : 00000000;
    B8C : 00000000;
    B8D : 00000000;
    B8E : 00000000;
    B8F : 00000000;
    B90 : 00000000;
    B91 : 00000000;
    B92 : 00000000;
    B93 : 00000000;
    B94 : 00000000;
    B95 : 00000000;
    B96 : 00000000;
    B97 : 00000000;
    B98 : 00000000;
    B99 : 00000000;
    B9A : 00000000;
    B9B : 00000000;
    B9C : 00000000;
    B9D : 00000000;
    B9E : 00000000;
    B9F : 00000000;
    BA0 : 00000000;
    BA1 : 00000000;
    BA2 : 00000000;
    BA3 : 00000000;
    BA4 : 00000000;
    BA5 : 00000000;
    BA6 : 00000000;
    BA7 : 00000000;
    BA8 : 00000000;
    BA9 : 00000000;
    BAA : 00000000;
    BAB : 00000000;
    BAC : 00000000;
    BAD : 00000000;
    BAE : 00000000;
    BAF : 00000000;
    BB0 : 00000000;
    BB1 : 00000000;
    BB2 : 00000000;
    BB3 : 00000000;
    BB4 : 00000000;
    BB5 : 00000000;
    BB6 : 00000000;
    BB7 : 00000000;
    BB8 : 00000000;
    BB9 : 00000000;
    BBA : 00000000;
    BBB : 00000000;
    BBC : 00000000;
    BBD : 00000000;
    BBE : 00000000;
    BBF : 00000000;
    BC0 : 00000000;
    BC1 : 00000000;
    BC2 : 00000000;
    BC3 : 00000000;
    BC4 : 00000000;
    BC5 : 00000000;
    BC6 : 00000000;
    BC7 : 00000000;
    BC8 : 00000000;
    BC9 : 00000000;
    BCA : 00000000;
    BCB : 00000000;
    BCC : 00000000;
    BCD : 00000000;
    BCE : 00000000;
    BCF : 00000000;
    BD0 : 00000000;
    BD1 : 00000000;
    BD2 : 00000000;
    BD3 : 00000000;
    BD4 : 00000000;
    BD5 : 00000000;
    BD6 : 00000000;
    BD7 : 00000000;
    BD8 : 00000000;
    BD9 : 00000000;
    BDA : 00000000;
    BDB : 00000000;
    BDC : 00000000;
    BDD : 00000000;
    BDE : 00000000;
    BDF : 00000000;
    BE0 : 00000000;
    BE1 : 00000000;
    BE2 : 00000000;
    BE3 : 00000000;
    BE4 : 00000000;
    BE5 : 00000000;
    BE6 : 00000000;
    BE7 : 00000000;
    BE8 : 00000000;
    BE9 : 00000000;
    BEA : 00000000;
    BEB : 00000000;
    BEC : 00000000;
    BED : 00000000;
    BEE : 00000000;
    BEF : 00000000;
    BF0 : 00000000;
    BF1 : 00000000;
    BF2 : 00000000;
    BF3 : 00000000;
    BF4 : 00000000;
    BF5 : 00000000;
    BF6 : 00000000;
    BF7 : 00000000;
    BF8 : 00000000;
    BF9 : 00000000;
    BFA : 00000000;
    BFB : 00000000;
    BFC : 00000000;
    BFD : 00000000;
    BFE : 00000000;
    BFF : 00000000;
    C00 : 00000000;
    C01 : 00000000;
    C02 : 00000010;
    C03 : 00000037;
    C04 : 0000006F;
    C05 : 000000AB;
    C06 : 000000DA;
    C07 : 000000F5;
    C08 : 000000FF;
    C09 : 000000FF;
    C0A : 000000FF;
    C0B : 000000FF;
    C0C : 000000FF;
    C0D : 000000FF;
    C0E : 000000FF;
    C0F : 000000FF;
    C10 : 000000FF;
    C11 : 000000FF;
    C12 : 000000FF;
    C13 : 000000FF;
    C14 : 000000FF;
    C15 : 000000FF;
    C16 : 000000FF;
    C17 : 000000FF;
    C18 : 000000FF;
    C19 : 000000FF;
    C1A : 000102FF;
    C1B : 000203FF;
    C1C : 000204FF;
    C1D : 000204FF;
    C1E : 000203FF;
    C1F : 000102FF;
    C20 : 000000FF;
    C21 : 000000FF;
    C22 : 000000FF;
    C23 : 000000FF;
    C24 : 000000FF;
    C25 : 000000FF;
    C26 : 000000FF;
    C27 : 000000FF;
    C28 : 000000FF;
    C29 : 000000FF;
    C2A : 000000FF;
    C2B : 000000FF;
    C2C : 000000FF;
    C2D : 000000FF;
    C2E : 000000FF;
    C2F : 000000FF;
    C30 : 000000FF;
    C31 : 000000FF;
    C32 : 000000F1;
    C33 : 000000D2;
    C34 : 0000009F;
    C35 : 00000063;
    C36 : 0000002E;
    C37 : 0000000B;
    C38 : 00000000;
    C39 : 00000000;
    C3A : 00000000;
    C3B : 00000000;
    C3C : 00000000;
    C3D : 00000000;
    C3E : 00000000;
    C3F : 00000000;
    C40 : 00000000;
    C41 : 00000000;
    C42 : 00000000;
    C43 : 00000000;
    C44 : 00000000;
    C45 : 00000000;
    C46 : 00000000;
    C47 : 00000000;
    C48 : 00000000;
    C49 : 00000000;
    C4A : 00000000;
    C4B : 00000000;
    C4C : 00000000;
    C4D : 00000000;
    C4E : 00000000;
    C4F : 00000000;
    C50 : 00000000;
    C51 : 00000000;
    C52 : 00000000;
    C53 : 00000000;
    C54 : 00000000;
    C55 : 00000000;
    C56 : 00000000;
    C57 : 00000000;
    C58 : 00000000;
    C59 : 00000000;
    C5A : 00000000;
    C5B : 00000000;
    C5C : 00000000;
    C5D : 00000000;
    C5E : 00000000;
    C5F : 00000000;
    C60 : 00000000;
    C61 : 00000000;
    C62 : 00000000;
    C63 : 00000000;
    C64 : 00000000;
    C65 : 00000000;
    C66 : 00000000;
    C67 : 00000000;
    C68 : 00000000;
    C69 : 00000000;
    C6A : 00000000;
    C6B : 00000000;
    C6C : 00000000;
    C6D : 00000000;
    C6E : 00000000;
    C6F : 00000000;
    C70 : 00000000;
    C71 : 00000000;
    C72 : 00000000;
    C73 : 00000000;
    C74 : 00000000;
    C75 : 00000000;
    C76 : 00000000;
    C77 : 00000000;
    C78 : 00000000;
    C79 : 00000000;
    C7A : 00000000;
    C7B : 00000000;
    C7C : 00000000;
    C7D : 00000000;
    C7E : 00000000;
    C7F : 00000000;
    C80 : 00000000;
    C81 : 00000000;
    C82 : 00000000;
    C83 : 00000000;
    C84 : 00000000;
    C85 : 00000000;
    C86 : 00000000;
    C87 : 00000000;
    C88 : 00000000;
    C89 : 00000000;
    C8A : 00000000;
    C8B : 00000000;
    C8C : 00000000;
    C8D : 00000000;
    C8E : 00000000;
    C8F : 00000000;
    C90 : 00000000;
    C91 : 00000000;
    C92 : 00000000;
    C93 : 00000000;
    C94 : 00000000;
    C95 : 00000000;
    C96 : 00000000;
    C97 : 00000000;
    C98 : 00000000;
    C99 : 00000000;
    C9A : 00000000;
    C9B : 00000000;
    C9C : 00000000;
    C9D : 00000000;
    C9E : 00000000;
    C9F : 00000000;
    CA0 : 00000000;
    CA1 : 00000000;
    CA2 : 00000000;
    CA3 : 00000000;
    CA4 : 00000000;
    CA5 : 00000000;
    CA6 : 00000000;
    CA7 : 00000000;
    CA8 : 00000000;
    CA9 : 00000000;
    CAA : 00000000;
    CAB : 00000000;
    CAC : 00000000;
    CAD : 00000000;
    CAE : 00000000;
    CAF : 00000000;
    CB0 : 00000000;
    CB1 : 00000000;
    CB2 : 00000000;
    CB3 : 00000000;
    CB4 : 00000000;
    CB5 : 00000000;
    CB6 : 00000000;
    CB7 : 00000000;
    CB8 : 00000000;
    CB9 : 00000000;
    CBA : 00000000;
    CBB : 00000000;
    CBC : 00000000;
    CBD : 00000000;
    CBE : 00000000;
    CBF : 00000000;
    CC0 : 00000000;
    CC1 : 00000000;
    CC2 : 00000000;
    CC3 : 00000000;
    CC4 : 00000000;
    CC5 : 00000000;
    CC6 : 00000000;
    CC7 : 00000010;
    CC8 : 0000003F;
    CC9 : 00000083;
    CCA : 000000C4;
    CCB : 000000ED;
    CCC : 000000FF;
    CCD : 000000FF;
    CCE : 000000FF;
    CCF : 000000FF;
    CD0 : 000000FF;
    CD1 : 000000FF;
    CD2 : 000000FF;
    CD3 : 000000FF;
    CD4 : 000000FF;
    CD5 : 000000FF;
    CD6 : 000000FF;
    CD7 : 000102FF;
    CD8 : 01060AFF;
    CD9 : 030D17FF;
    CDA : 051727FF;
    CDB : 082139FF;
    CDC : 0A2D4CFF;
    CDD : 0D375EFF;
    CDE : 0F406DFF;
    CDF : 11497CFF;
    CE0 : 135089FF;
    CE1 : 14538FFF;
    CE2 : 155795FF;
    CE3 : 165A99FF;
    CE4 : 165B9CFF;
    CE5 : 165A9BFF;
    CE6 : 155898FF;
    CE7 : 145593FF;
    CE8 : 13528DFF;
    CE9 : 124D85FF;
    CEA : 104577FF;
    CEB : 0E3C68FF;
    CEC : 0C3359FF;
    CED : 0A2846FF;
    CEE : 071E34FF;
    CEF : 051422FF;
    CF0 : 030B13FF;
    CF1 : 010408FF;
    CF2 : 000000FF;
    CF3 : 000000FF;
    CF4 : 000000FF;
    CF5 : 000000FF;
    CF6 : 000000FF;
    CF7 : 000000FF;
    CF8 : 000000FF;
    CF9 : 000000FF;
    CFA : 000000FF;
    CFB : 000000FF;
    CFC : 000000FF;
    CFD : 000000FD;
    CFE : 000000E7;
    CFF : 000000B9;
    D00 : 00000075;
    D01 : 00000033;
    D02 : 0000000A;
    D03 : 00000000;
    D04 : 00000000;
    D05 : 00000000;
    D06 : 00000000;
    D07 : 00000000;
    D08 : 00000000;
    D09 : 00000000;
    D0A : 00000000;
    D0B : 00000000;
    D0C : 00000000;
    D0D : 00000000;
    D0E : 00000000;
    D0F : 00000000;
    D10 : 00000000;
    D11 : 00000000;
    D12 : 00000000;
    D13 : 00000000;
    D14 : 00000000;
    D15 : 00000000;
    D16 : 00000000;
    D17 : 00000000;
    D18 : 00000000;
    D19 : 00000000;
    D1A : 00000000;
    D1B : 00000000;
    D1C : 00000000;
    D1D : 00000000;
    D1E : 00000000;
    D1F : 00000000;
    D20 : 00000000;
    D21 : 00000000;
    D22 : 00000000;
    D23 : 00000000;
    D24 : 00000000;
    D25 : 00000000;
    D26 : 00000000;
    D27 : 00000000;
    D28 : 00000000;
    D29 : 00000000;
    D2A : 00000000;
    D2B : 00000000;
    D2C : 00000000;
    D2D : 00000000;
    D2E : 00000000;
    D2F : 00000000;
    D30 : 00000000;
    D31 : 00000000;
    D32 : 00000000;
    D33 : 00000000;
    D34 : 00000000;
    D35 : 00000000;
    D36 : 00000000;
    D37 : 00000000;
    D38 : 00000000;
    D39 : 00000000;
    D3A : 00000000;
    D3B : 00000000;
    D3C : 00000000;
    D3D : 00000000;
    D3E : 00000000;
    D3F : 00000000;
    D40 : 00000000;
    D41 : 00000000;
    D42 : 00000000;
    D43 : 00000000;
    D44 : 00000000;
    D45 : 00000000;
    D46 : 00000000;
    D47 : 00000000;
    D48 : 00000000;
    D49 : 00000000;
    D4A : 00000000;
    D4B : 00000000;
    D4C : 00000000;
    D4D : 00000000;
    D4E : 00000000;
    D4F : 00000000;
    D50 : 00000000;
    D51 : 00000000;
    D52 : 00000000;
    D53 : 00000000;
    D54 : 00000000;
    D55 : 00000000;
    D56 : 00000000;
    D57 : 00000000;
    D58 : 00000000;
    D59 : 00000000;
    D5A : 00000000;
    D5B : 00000000;
    D5C : 00000000;
    D5D : 00000000;
    D5E : 00000000;
    D5F : 00000000;
    D60 : 00000000;
    D61 : 00000000;
    D62 : 00000000;
    D63 : 00000000;
    D64 : 00000000;
    D65 : 00000000;
    D66 : 00000000;
    D67 : 00000000;
    D68 : 00000000;
    D69 : 00000000;
    D6A : 00000000;
    D6B : 00000000;
    D6C : 00000000;
    D6D : 00000000;
    D6E : 00000000;
    D6F : 00000000;
    D70 : 00000000;
    D71 : 00000000;
    D72 : 00000000;
    D73 : 00000000;
    D74 : 00000000;
    D75 : 00000000;
    D76 : 00000000;
    D77 : 00000000;
    D78 : 00000000;
    D79 : 00000000;
    D7A : 00000000;
    D7B : 00000000;
    D7C : 00000000;
    D7D : 00000000;
    D7E : 00000000;
    D7F : 00000000;
    D80 : 00000000;
    D81 : 00000000;
    D82 : 00000000;
    D83 : 00000000;
    D84 : 00000000;
    D85 : 00000000;
    D86 : 00000000;
    D87 : 00000000;
    D88 : 00000000;
    D89 : 00000000;
    D8A : 00000000;
    D8B : 00000000;
    D8C : 00000007;
    D8D : 00000032;
    D8E : 0000007A;
    D8F : 000000C4;
    D90 : 000000F2;
    D91 : 000000FF;
    D92 : 000000FF;
    D93 : 000000FF;
    D94 : 000000FF;
    D95 : 000000FF;
    D96 : 000000FF;
    D97 : 000000FF;
    D98 : 000000FF;
    D99 : 000000FF;
    D9A : 010306FF;
    D9B : 040E17FF;
    D9C : 071D31FF;
    D9D : 0C3152FF;
    D9E : 104574FF;
    D9F : 155895FF;
    DA0 : 1968B0FF;
    DA1 : 1C75C6FF;
    DA2 : 1E7ED5FF;
    DA3 : 1F83DFFF;
    DA4 : 2087E5FF;
    DA5 : 2189E9FF;
    DA6 : 218AEAFF;
    DA7 : 218AEBFF;
    DA8 : 218AEBFF;
    DA9 : 2189EBFF;
    DAA : 2189EBFF;
    DAB : 2188EAFF;
    DAC : 2188EAFF;
    DAD : 2088E9FF;
    DAE : 2087E9FF;
    DAF : 2087E9FF;
    DB0 : 2087E9FF;
    DB1 : 2086E8FF;
    DB2 : 2085E7FF;
    DB3 : 2084E6FF;
    DB4 : 2083E3FF;
    DB5 : 1F80DFFF;
    DB6 : 1E7CD8FF;
    DB7 : 1D75CCFF;
    DB8 : 1A6BBCFF;
    DB9 : 175EA5FF;
    DBA : 134E89FF;
    DBB : 0E3C69FF;
    DBC : 0A2948FF;
    DBD : 061729FF;
    DBE : 020A12FF;
    DBF : 000203FF;
    DC0 : 000000FF;
    DC1 : 000000FF;
    DC2 : 000000FF;
    DC3 : 000000FF;
    DC4 : 000000FF;
    DC5 : 000000FF;
    DC6 : 000000FF;
    DC7 : 000000FF;
    DC8 : 000000FF;
    DC9 : 000000EB;
    DCA : 000000B7;
    DCB : 0000006B;
    DCC : 00000027;
    DCD : 00000003;
    DCE : 00000000;
    DCF : 00000000;
    DD0 : 00000000;
    DD1 : 00000000;
    DD2 : 00000000;
    DD3 : 00000000;
    DD4 : 00000000;
    DD5 : 00000000;
    DD6 : 00000000;
    DD7 : 00000000;
    DD8 : 00000000;
    DD9 : 00000000;
    DDA : 00000000;
    DDB : 00000000;
    DDC : 00000000;
    DDD : 00000000;
    DDE : 00000000;
    DDF : 00000000;
    DE0 : 00000000;
    DE1 : 00000000;
    DE2 : 00000000;
    DE3 : 00000000;
    DE4 : 00000000;
    DE5 : 00000000;
    DE6 : 00000000;
    DE7 : 00000000;
    DE8 : 00000000;
    DE9 : 00000000;
    DEA : 00000000;
    DEB : 00000000;
    DEC : 00000000;
    DED : 00000000;
    DEE : 00000000;
    DEF : 00000000;
    DF0 : 00000000;
    DF1 : 00000000;
    DF2 : 00000000;
    DF3 : 00000000;
    DF4 : 00000000;
    DF5 : 00000000;
    DF6 : 00000000;
    DF7 : 00000000;
    DF8 : 00000000;
    DF9 : 00000000;
    DFA : 00000000;
    DFB : 00000000;
    DFC : 00000000;
    DFD : 00000000;
    DFE : 00000000;
    DFF : 00000000;
    E00 : 00000000;
    E01 : 00000000;
    E02 : 00000000;
    E03 : 00000000;
    E04 : 00000000;
    E05 : 00000000;
    E06 : 00000000;
    E07 : 00000000;
    E08 : 00000000;
    E09 : 00000000;
    E0A : 00000000;
    E0B : 00000000;
    E0C : 00000000;
    E0D : 00000000;
    E0E : 00000000;
    E0F : 00000000;
    E10 : 00000000;
    E11 : 00000000;
    E12 : 00000000;
    E13 : 00000000;
    E14 : 00000000;
    E15 : 00000000;
    E16 : 00000000;
    E17 : 00000000;
    E18 : 00000000;
    E19 : 00000000;
    E1A : 00000000;
    E1B : 00000000;
    E1C : 00000000;
    E1D : 00000000;
    E1E : 00000000;
    E1F : 00000000;
    E20 : 00000000;
    E21 : 00000000;
    E22 : 00000000;
    E23 : 00000000;
    E24 : 00000000;
    E25 : 00000000;
    E26 : 00000000;
    E27 : 00000000;
    E28 : 00000000;
    E29 : 00000000;
    E2A : 00000000;
    E2B : 00000000;
    E2C : 00000000;
    E2D : 00000000;
    E2E : 00000000;
    E2F : 00000000;
    E30 : 00000000;
    E31 : 00000000;
    E32 : 00000000;
    E33 : 00000000;
    E34 : 00000000;
    E35 : 00000000;
    E36 : 00000000;
    E37 : 00000000;
    E38 : 00000000;
    E39 : 00000000;
    E3A : 00000000;
    E3B : 00000000;
    E3C : 00000000;
    E3D : 00000000;
    E3E : 00000000;
    E3F : 00000000;
    E40 : 00000000;
    E41 : 00000000;
    E42 : 00000000;
    E43 : 00000000;
    E44 : 00000000;
    E45 : 00000000;
    E46 : 00000000;
    E47 : 00000000;
    E48 : 00000000;
    E49 : 00000000;
    E4A : 00000000;
    E4B : 00000000;
    E4C : 00000000;
    E4D : 00000000;
    E4E : 00000000;
    E4F : 00000000;
    E50 : 00000000;
    E51 : 00000000;
    E52 : 00000017;
    E53 : 00000059;
    E54 : 000000AD;
    E55 : 000000E8;
    E56 : 000000FF;
    E57 : 000000FF;
    E58 : 000000FF;
    E59 : 000000FF;
    E5A : 000000FF;
    E5B : 000000FF;
    E5C : 000000FF;
    E5D : 000000FF;
    E5E : 020305FF;
    E5F : 09131CFF;
    E60 : 142E45FF;
    E61 : 1D4C76FF;
    E62 : 1E64A3FF;
    E63 : 1E76C5FF;
    E64 : 1F82DBFF;
    E65 : 2189E8FF;
    E66 : 218CEDFF;
    E67 : 218CEDFF;
    E68 : 218CEDFF;
    E69 : 218BEBFF;
    E6A : 218AEAFF;
    E6B : 2189E9FF;
    E6C : 2188E8FF;
    E6D : 2188E8FF;
    E6E : 2187E7FF;
    E6F : 2187E7FF;
    E70 : 2187E7FF;
    E71 : 2186E6FF;
    E72 : 2086E6FF;
    E73 : 2086E6FF;
    E74 : 2085E5FF;
    E75 : 2085E5FF;
    E76 : 2084E5FF;
    E77 : 2084E4FF;
    E78 : 2084E4FF;
    E79 : 2083E4FF;
    E7A : 2083E3FF;
    E7B : 2082E3FF;
    E7C : 2082E3FF;
    E7D : 2082E3FF;
    E7E : 2082E3FF;
    E7F : 2082E3FF;
    E80 : 2082E4FF;
    E81 : 1F82E5FF;
    E82 : 1F82E4FF;
    E83 : 1F80E2FF;
    E84 : 1E7DDCFF;
    E85 : 1C74CEFF;
    E86 : 1967B6FF;
    E87 : 145292FF;
    E88 : 0E3965FF;
    E89 : 081F37FF;
    E8A : 030C15FF;
    E8B : 000102FF;
    E8C : 000000FF;
    E8D : 000000FF;
    E8E : 000000FF;
    E8F : 000000FF;
    E90 : 000000FF;
    E91 : 000000FF;
    E92 : 000000FF;
    E93 : 000000FD;
    E94 : 000000E0;
    E95 : 0000009D;
    E96 : 00000049;
    E97 : 0000000F;
    E98 : 00000000;
    E99 : 00000000;
    E9A : 00000000;
    E9B : 00000000;
    E9C : 00000000;
    E9D : 00000000;
    E9E : 00000000;
    E9F : 00000000;
    EA0 : 00000000;
    EA1 : 00000000;
    EA2 : 00000000;
    EA3 : 00000000;
    EA4 : 00000000;
    EA5 : 00000000;
    EA6 : 00000000;
    EA7 : 00000000;
    EA8 : 00000000;
    EA9 : 00000000;
    EAA : 00000000;
    EAB : 00000000;
    EAC : 00000000;
    EAD : 00000000;
    EAE : 00000000;
    EAF : 00000000;
    EB0 : 00000000;
    EB1 : 00000000;
    EB2 : 00000000;
    EB3 : 00000000;
    EB4 : 00000000;
    EB5 : 00000000;
    EB6 : 00000000;
    EB7 : 00000000;
    EB8 : 00000000;
    EB9 : 00000000;
    EBA : 00000000;
    EBB : 00000000;
    EBC : 00000000;
    EBD : 00000000;
    EBE : 00000000;
    EBF : 00000000;
    EC0 : 00000000;
    EC1 : 00000000;
    EC2 : 00000000;
    EC3 : 00000000;
    EC4 : 00000000;
    EC5 : 00000000;
    EC6 : 00000000;
    EC7 : 00000000;
    EC8 : 00000000;
    EC9 : 00000000;
    ECA : 00000000;
    ECB : 00000000;
    ECC : 00000000;
    ECD : 00000000;
    ECE : 00000000;
    ECF : 00000000;
    ED0 : 00000000;
    ED1 : 00000000;
    ED2 : 00000000;
    ED3 : 00000000;
    ED4 : 00000000;
    ED5 : 00000000;
    ED6 : 00000000;
    ED7 : 00000000;
    ED8 : 00000000;
    ED9 : 00000000;
    EDA : 00000000;
    EDB : 00000000;
    EDC : 00000000;
    EDD : 00000000;
    EDE : 00000000;
    EDF : 00000000;
    EE0 : 00000000;
    EE1 : 00000000;
    EE2 : 00000000;
    EE3 : 00000000;
    EE4 : 00000000;
    EE5 : 00000000;
    EE6 : 00000000;
    EE7 : 00000000;
    EE8 : 00000000;
    EE9 : 00000000;
[...]
    1D15B : 00000000;
    1D15C : 00000000;
    1D15D : 00000000;
    1D15E : 00000000;
    1D15F : 00000000;
    1D160 : 00000000;
    1D161 : 00000000;
    1D162 : 00000000;
    1D163 : 00000000;
    1D164 : 00000000;
    1D165 : 00000000;
    1D166 : 00000000;
    1D167 : 00000000;
    1D168 : 00000000;
    1D169 : 00000000;
    1D16A : 00000000;
    1D16B : 00000000;
    1D16C : 00000000;
    1D16D : 00000000;
    1D16E : 00000000;
    1D16F : 00000000;
    1D170 : 00000000;
    1D171 : 00000000;
    1D172 : 00000000;
    1D173 : 00000000;
    1D174 : 00000000;
    1D175 : 00000000;
    1D176 : 00000000;
    1D177 : 00000000;
    1D178 : 00000000;
    1D179 : 00000000;
    1D17A : 00000000;
    1D17B : 00000000;
    1D17C : 00000000;
    1D17D : 00000000;
    1D17E : 00000000;
    1D17F : 00000000;
    1D180 : 00000000;
    1D181 : 00000000;
    1D182 : 00000000;
    1D183 : 00000000;
    1D184 : 00000000;
    1D185 : 00000000;
    1D186 : 00000000;
    1D187 : 00000000;
    1D188 : 00000000;
    1D189 : 00000000;
    1D18A : 00000000;
    1D18B : 00000000;
    1D18C : 00000000;
    1D18D : 00000000;
    1D18E : 00000000;
    1D18F : 00000000;
    1D190 : 00000000;
    1D191 : 00000000;
    1D192 : 00000000;
    1D193 : 00000000;
    1D194 : 00000000;
    1D195 : 00000000;
    1D196 : 00000000;
    1D197 : 00000000;
    1D198 : 00000000;
    1D199 : 00000000;
    1D19A : 00000000;
    1D19B : 00000000;
    1D19C : 00000000;
    1D19D : 00000000;
    1D19E : 00000000;
    1D19F : 00000000;
    1D1A0 : 00000000;
    1D1A1 : 00000000;
    1D1A2 : 00000000;
    1D1A3 : 00000000;
    1D1A4 : 00000000;
    1D1A5 : 00000000;
    1D1A6 : 00000000;
    1D1A7 : 00000000;
    1D1A8 : 00000000;
    1D1A9 : 00000000;
    1D1AA : 00000000;
    1D1AB : 00000000;
    1D1AC : 00000000;
    1D1AD : 00000000;
    1D1AE : 00000000;
    1D1AF : 00000000;
    1D1B0 : 00000000;
    1D1B1 : 00000000;
    1D1B2 : 00000000;
    1D1B3 : 00000000;
    1D1B4 : 00000000;
    1D1B5 : 00000000;
    1D1B6 : 00000000;
    1D1B7 : 00000000;
    1D1B8 : 00000000;
    1D1B9 : 00000000;
    1D1BA : 00000000;
    1D1BB : 00000000;
    1D1BC : 00000000;
    1D1BD : 00000000;
    1D1BE : 00000000;
    1D1BF : 00000000;
    1D1C0 : 00000000;
    1D1C1 : 00000000;
    1D1C2 : 00000000;
    1D1C3 : 00000000;
    1D1C4 : 00000000;
    1D1C5 : 00000000;
    1D1C6 : 00000000;
    1D1C7 : 00000000;
    1D1C8 : 00000000;
    1D1C9 : 00000000;
    1D1CA : 00000000;
    1D1CB : 00000000;
    1D1CC : 00000000;
    1D1CD : 00000000;
    1D1CE : 00000000;
    1D1CF : 00000000;
    1D1D0 : 00000000;
    1D1D1 : 00000000;
    1D1D2 : 00000000;
    1D1D3 : 00000000;
    1D1D4 : 00000000;
    1D1D5 : 00000000;
    1D1D6 : 00000000;
    1D1D7 : 00000000;
    1D1D8 : 00000000;
    1D1D9 : 00000000;
    1D1DA : 00000000;
    1D1DB : 00000000;
    1D1DC : 00000000;
    1D1DD : 00000000;
    1D1DE : 00000000;
    1D1DF : 00000000;
    1D1E0 : 00000000;
    1D1E1 : 00000000;
    1D1E2 : 00000000;
    1D1E3 : 00000000;
    1D1E4 : 00000000;
    1D1E5 : 00000000;
    1D1E6 : 00000000;
    1D1E7 : 00000000;
    1D1E8 : 00000000;
    1D1E9 : 00000000;
    1D1EA : 00000000;
    1D1EB : 00000000;
    1D1EC : 00000000;
    1D1ED : 00000000;
    1D1EE : 00000000;
    1D1EF : 00000000;
    1D1F0 : 00000000;
    1D1F1 : 00000000;
    1D1F2 : 00000000;
    1D1F3 : 00000000;
    1D1F4 : 00000000;
    1D1F5 : 00000000;
    1D1F6 : 00000000;
    1D1F7 : 00000000;
    1D1F8 : 00000000;
    1D1F9 : 00000000;
    1D1FA : 00000000;
    1D1FB : 00000000;
    1D1FC : 00000000;
    1D1FD : 00000000;
    1D1FE : 00000000;
    1D1FF : 00000000;
    1D200 : 00000000;
    1D201 : 00000000;
    1D202 : 00000000;
    1D203 : 00000000;
    1D204 : 00000000;
    1D205 : 00000000;
    1D206 : 00000000;
    1D207 : 00000000;
    1D208 : 00000000;
    1D209 : 00000000;
    1D20A : 00000000;
    1D20B : 00000000;
    1D20C : 00000000;
    1D20D : 00000000;
    1D20E : 00000000;
    1D20F : 00000000;
    1D210 : 00000000;
    1D211 : 00000000;
    1D212 : 00000000;
    1D213 : 00000000;
    1D214 : 00000000;
    1D215 : 00000000;
    1D216 : 00000000;
    1D217 : 00000000;
    1D218 : 00000000;
    1D219 : 00000000;
    1D21A : 00000000;
    1D21B : 00000000;
    1D21C : 00000000;
    1D21D : 00000000;
    1D21E : 00000000;
    1D21F : 00000000;
    1D220 : 00000000;
    1D221 : 00000000;
    1D222 : 00000000;
    1D223 : 00000000;
    1D224 : 00000000;
    1D225 : 00000000;
    1D226 : 00000000;
    1D227 : 00000000;
    1D228 : 00000000;
    1D229 : 00000000;
    1D22A : 00000000;
    1D22B : 00000000;
    1D22C : 00000000;
    1D22D : 00000000;
    1D22E : 00000000;
    1D22F : 00000000;
    1D230 : 00000000;
    1D231 : 00000000;
    1D232 : 00000000;
    1D233 : 00000000;
    1D234 : 00000000;
    1D235 : 00000000;
    1D236 : 00000000;
    1D237 : 00000000;
    1D238 : 00000000;
    1D239 : 00000000;
    1D23A : 00000000;
    1D23B : 00000000;
    1D23C : 00000000;
    1D23D : 00000000;
    1D23E : 00000000;
    1D23F : 00000000;
    1D240 : 00000000;
    1D241 : 00000000;
    1D242 : 00000000;
    1D243 : 00000000;
    1D244 : 00000000;
    1D245 : 00000000;
    1D246 : 00000000;
    1D247 : 00000000;
    1D248 : 00000000;
    1D249 : 00000000;
    1D24A : 00000000;
    1D24B : 00000000;
    1D24C : 00000000;
    1D24D : 00000000;
    1D24E : 00000000;
    1D24F : 00000000;
    1D250 : 00000000;
    1D251 : 00000000;
    1D252 : 00000000;
    1D253 : 00000000;
    1D254 : 00000000;
    1D255 : 00000000;
    1D256 : 00000000;
    1D257 : 00000000;
    1D258 : 00000000;
    1D259 : 00000000;
    1D25A : 00000000;
    1D25B : 00000000;
    1D25C : 00000000;
    1D25D : 00000000;
    1D25E : 00000000;
    1D25F : 00000000;
    1D260 : 00000000;
    1D261 : 00000000;
    1D262 : 00000000;
    1D263 : 00000000;
    1D264 : 00000000;
    1D265 : 00000000;
    1D266 : 00000000;
    1D267 : 00000000;
    1D268 : 00000000;
    1D269 : 00000000;
    1D26A : 00000000;
    1D26B : 00000000;
    1D26C : 00000000;
    1D26D : 00000000;
    1D26E : 00000000;
    1D26F : 00000000;
    1D270 : 00000000;
    1D271 : 00000000;
    1D272 : 00000000;
    1D273 : 00000000;
    1D274 : 00000000;
    1D275 : 00000000;
    1D276 : 00000000;
    1D277 : 00000000;
    1D278 : 00000000;
    1D279 : 00000000;
    1D27A : 00000000;
    1D27B : 00000000;
    1D27C : 00000000;
    1D27D : 00000000;
    1D27E : 00000000;
    1D27F : 00000000;
    1D280 : 00000000;
    1D281 : 00000000;
    1D282 : 00000000;
    1D283 : 00000000;
    1D284 : 00000000;
    1D285 : 00000000;
    1D286 : 00000000;
    1D287 : 00000000;
    1D288 : 00000000;
    1D289 : 00000000;
    1D28A : 00000000;
    1D28B : 00000000;
    1D28C : 00000000;
    1D28D : 00000000;
    1D28E : 00000000;
    1D28F : 00000000;
    1D290 : 00000000;
    1D291 : 00000000;
    1D292 : 00000000;
    1D293 : 00000000;
    1D294 : 00000000;
    1D295 : 00000000;
    1D296 : 00000000;
    1D297 : 00000000;
    1D298 : 00000000;
    1D299 : 00000000;
    1D29A : 00000000;
    1D29B : 00000000;
    1D29C : 00000000;
    1D29D : 00000000;
    1D29E : 00000000;
    1D29F : 00000000;
    1D2A0 : 00000000;
    1D2A1 : 00000000;
    1D2A2 : 00000000;
    1D2A3 : 00000000;
    1D2A4 : 00000000;
    1D2A5 : 00000000;
    1D2A6 : 00000000;
    1D2A7 : 00000000;
    1D2A8 : 00000000;
    1D2A9 : 00000000;
    1D2AA : 00000000;
    1D2AB : 00000000;
    1D2AC : 00000000;
    1D2AD : 00000000;
    1D2AE : 00000000;
    1D2AF : 00000000;
    1D2B0 : 00000000;
    1D2B1 : 00000000;
    1D2B2 : 00000000;
    1D2B3 : 00000000;
    1D2B4 : 00000000;
    1D2B5 : 00000000;
    1D2B6 : 00000000;
    1D2B7 : 00000000;
    1D2B8 : 00000000;
    1D2B9 : 00000000;
    1D2BA : 00000000;
    1D2BB : 00000000;
    1D2BC : 00000000;
    1D2BD : 00000000;
    1D2BE : 00000000;
    1D2BF : 00000000;
    1D2C0 : 00000000;
    1D2C1 : 00000000;
    1D2C2 : 00000000;
    1D2C3 : 00000000;
    1D2C4 : 00000000;
    1D2C5 : 00000000;
    1D2C6 : 00000000;
    1D2C7 : 00000000;
    1D2C8 : 00000000;
    1D2C9 : 00000000;
    1D2CA : 00000000;
    1D2CB : 00000000;
    1D2CC : 00000000;
    1D2CD : 00000000;
    1D2CE : 00000000;
    1D2CF : 00000000;
    1D2D0 : 00000000;
    1D2D1 : 00000000;
    1D2D2 : 00000000;
    1D2D3 : 00000000;
    1D2D4 : 00000000;
    1D2D5 : 00000000;
    1D2D6 : 00000000;
    1D2D7 : 00000000;
    1D2D8 : 00000000;
    1D2D9 : 00000000;
    1D2DA : 00000000;
    1D2DB : 00000000;
    1D2DC : 00000000;
    1D2DD : 00000000;
    1D2DE : 00000000;
    1D2DF : 00000000;
    1D2E0 : 00000000;
    1D2E1 : 00000000;
    1D2E2 : 00000000;
    1D2E3 : 00000000;
    1D2E4 : 00000000;
    1D2E5 : 00000000;
    1D2E6 : 00000000;
    1D2E7 : 00000000;
    1D2E8 : 00000000;
    1D2E9 : 00000000;
    1D2EA : 00000000;
    1D2EB : 00000000;
    1D2EC : 00000000;
    1D2ED : 00000000;
    1D2EE : 00000000;
    1D2EF : 00000000;
    1D2F0 : 00000000;
    1D2F1 : 00000000;
    1D2F2 : 00000000;
    1D2F3 : 00000000;
    1D2F4 : 00000000;
    1D2F5 : 00000000;
    1D2F6 : 00000000;
    1D2F7 : 00000000;
    1D2F8 : 00000000;
    1D2F9 : 00000000;
    1D2FA : 00000000;
    1D2FB : 00000000;
    1D2FC : 00000000;
    1D2FD : 00000000;
    1D2FE : 00000000;
    1D2FF : 00000000;
    1D300 : 00000000;
    1D301 : 00000000;
    1D302 : 00000000;
    1D303 : 00000000;
    1D304 : 00000000;
    1D305 : 00000000;
    1D306 : 00000000;
    1D307 : 00000000;
    1D308 : 00000000;
    1D309 : 00000000;
    1D30A : 00000000;
    1D30B : 00000000;
    1D30C : 00000000;
    1D30D : 00000000;
    1D30E : 00000000;
    1D30F : 00000000;
    1D310 : 00000000;
    1D311 : 00000000;
    1D312 : 00000000;
    1D313 : 00000000;
    1D314 : 00000000;
    1D315 : 00000000;
    1D316 : 00000000;
    1D317 : 00000000;
    1D318 : 00000000;
    1D319 : 00000000;
    1D31A : 00000000;
    1D31B : 00000000;
    1D31C : 00000000;
    1D31D : 00000000;
    1D31E : 00000000;
    1D31F : 00000000;
    1D320 : 00000000;
    1D321 : 00000000;
    1D322 : 00000000;
    1D323 : 00000000;
    1D324 : 00000000;
    1D325 : 00000000;
    1D326 : 00000000;
    1D327 : 00000000;
    1D328 : 00000000;
    1D329 : 00000000;
    1D32A : 00000000;
    1D32B : 00000000;
    1D32C : 00000000;
    1D32D : 00000000;
    1D32E : 00000000;
    1D32F : 00000000;
    1D330 : 00000000;
    1D331 : 00000000;
    1D332 : 00000000;
    1D333 : 00000000;
    1D334 : 00000000;
    1D335 : 00000000;
    1D336 : 00000000;
    1D337 : 00000000;
    1D338 : 00000000;
    1D339 : 00000000;
    1D33A : 00000000;
    1D33B : 00000000;
    1D33C : 00000000;
    1D33D : 00000000;
    1D33E : 00000000;
    1D33F : 00000000;
    1D340 : 00000000;
    1D341 : 00000000;
    1D342 : 00000000;
    1D343 : 00000000;
    1D344 : 00000000;
    1D345 : 00000000;
    1D346 : 00000000;
    1D347 : 00000000;
    1D348 : 00000000;
    1D349 : 00000000;
    1D34A : 00000000;
    1D34B : 00000000;
    1D34C : 00000000;
    1D34D : 00000000;
    1D34E : 00000000;
    1D34F : 00000000;
    1D350 : 00000000;
    1D351 : 00000000;
    1D352 : 00000000;
    1D353 : 00000000;
    1D354 : 00000000;
    1D355 : 00000000;
    1D356 : 00000000;
    1D357 : 00000000;
    1D358 : 00000000;
    1D359 : 00000000;
    1D35A : 00000000;
    1D35B : 00000000;
    1D35C : 00000000;
    1D35D : 00000000;
    1D35E : 00000000;
    1D35F : 00000000;
    1D360 : 00000000;
    1D361 : 00000000;
    1D362 : 00000000;
    1D363 : 00000000;
    1D364 : 00000000;
    1D365 : 00000000;
    1D366 : 00000000;
    1D367 : 00000000;
    1D368 : 00000000;
    1D369 : 00000000;
    1D36A : 00000000;
    1D36B : 00000000;
    1D36C : 00000000;
    1D36D : 00000000;
    1D36E : 00000000;
    1D36F : 00000000;
    1D370 : 00000000;
    1D371 : 00000000;
    1D372 : 00000000;
    1D373 : 00000000;
    1D374 : 00000000;
    1D375 : 00000000;
    1D376 : 00000000;
    1D377 : 00000000;
    1D378 : 00000000;
    1D379 : 00000000;
    1D37A : 00000000;
    1D37B : 00000000;
    1D37C : 00000000;
    1D37D : 00000000;
    1D37E : 00000000;
    1D37F : 00000000;
    1D380 : 00000000;
    1D381 : 00000000;
    1D382 : 00000000;
    1D383 : 00000000;
    1D384 : 00000000;
    1D385 : 00000000;
    1D386 : 00000000;
    1D387 : 00000000;
    1D388 : 00000000;
    1D389 : 00000000;
    1D38A : 00000000;
    1D38B : 00000000;
    1D38C : 00000000;
    1D38D : 00000000;
    1D38E : 00000000;
    1D38F : 00000000;
    1D390 : 00000000;
    1D391 : 00000000;
    1D392 : 00000000;
    1D393 : 00000000;
    1D394 : 00000000;
    1D395 : 00000000;
    1D396 : 00000000;
    1D397 : 00000000;
    1D398 : 00000000;
    1D399 : 00000000;
    1D39A : 00000000;
    1D39B : 00000000;
    1D39C : 00000000;
    1D39D : 00000000;
    1D39E : 00000000;
    1D39F : 00000000;
    1D3A0 : 00000000;
    1D3A1 : 00000000;
    1D3A2 : 00000000;
    1D3A3 : 00000000;
    1D3A4 : 00000000;
    1D3A5 : 00000000;
    1D3A6 : 00000000;
    1D3A7 : 00000000;
    1D3A8 : 00000000;
    1D3A9 : 00000000;
    1D3AA : 00000000;
    1D3AB : 00000000;
    1D3AC : 00000000;
    1D3AD : 00000000;
    1D3AE : 00000000;
    1D3AF : 00000000;
    1D3B0 : 00000000;
    1D3B1 : 00000000;
    1D3B2 : 00000000;
    1D3B3 : 00000000;
    1D3B4 : 00000000;
    1D3B5 : 00000000;
    1D3B6 : 00000000;
    1D3B7 : 00000000;
    1D3B8 : 00000000;
    1D3B9 : 00000000;
    1D3BA : 00000000;
    1D3BB : 00000000;
    1D3BC : 00000000;
    1D3BD : 00000000;
    1D3BE : 00000000;
    1D3BF : 00000000;
    1D3C0 : 00000000;
    1D3C1 : 00000000;
    1D3C2 : 00000000;
    1D3C3 : 00000000;
    1D3C4 : 00000000;
    1D3C5 : 00000000;
    1D3C6 : 00000000;
    1D3C7 : 00000000;
    1D3C8 : 00000000;
    1D3C9 : 00000000;
    1D3CA : 00000000;
    1D3CB : 00000000;
    1D3CC : 00000000;
    1D3CD : 00000000;
    1D3CE : 00000000;
    1D3CF : 00000000;
    1D3D0 : 00000000;
    1D3D1 : 00000000;
    1D3D2 : 00000000;
    1D3D3 : 00000000;
    1D3D4 : 00000000;
    1D3D5 : 00000000;
    1D3D6 : 00000000;
    1D3D7 : 00000000;
    1D3D8 : 00000000;
    1D3D9 : 00000000;
    1D3DA : 00000000;
    1D3DB : 00000000;
    1D3DC : 00000000;
    1D3DD : 00000000;
    1D3DE : 00000000;
    1D3DF : 00000000;
    1D3E0 : 00000000;
    1D3E1 : 00000000;
    1D3E2 : 00000000;
    1D3E3 : 00000000;
    1D3E4 : 00000000;
    1D3E5 : 00000000;
    1D3E6 : 00000000;
    1D3E7 : 00000000;
    1D3E8 : 00000000;
    1D3E9 : 00000000;
    1D3EA : 00000000;
    1D3EB : 00000000;
    1D3EC : 00000000;
    1D3ED : 00000000;
    1D3EE : 00000000;
    1D3EF : 00000000;
    1D3F0 : 00000000;
    1D3F1 : 00000000;
    1D3F2 : 00000000;
    1D3F3 : 00000000;
    1D3F4 : 00000000;
    1D3F5 : 00000000;
    1D3F6 : 00000000;
    1D3F7 : 00000000;
    1D3F8 : 00000000;
    1D3F9 : 00000000;
    1D3FA : 00000000;
    1D3FB : 00000000;
    1D3FC : 00000000;
    1D3FD : 00000000;
    1D3FE : 00000000;
    1D3FF : 00000000;
    1D400 : 00000000;
    1D401 : 00000000;
    1D402 : 00000000;
    1D403 : 00000000;
    1D404 : 00000000;
    1D405 : 00000000;
    1D406 : 00000000;
    1D407 : 00000000;
    1D408 : 00000000;
    1D409 : 00000000;
    1D40A : 00000000;
    1D40B : 00000000;
    1D40C : 00000000;
    1D40D : 00000000;
    1D40E : 00000000;
    1D40F : 00000000;
    1D410 : 00000000;
    1D411 : 00000000;
    1D412 : 00000000;
    1D413 : 00000000;
    1D414 : 00000000;
    1D415 : 00000000;
    1D416 : 00000000;
    1D417 : 00000000;
    1D418 : 00000000;
    1D419 : 00000000;
    1D41A : 00000000;
    1D41B : 00000000;
    1D41C : 00000000;
    1D41D : 00000000;
    1D41E : 00000000;
    1D41F : 00000000;
    1D420 : 00000000;
    1D421 : 00000000;
    1D422 : 00000000;
    1D423 : 00000000;
    1D424 : 00000000;
    1D425 : 00000000;
    1D426 : 00000000;
    1D427 : 00000000;
    1D428 : 00000000;
    1D429 : 00000000;
    1D42A : 00000000;
    1D42B : 00000000;
    1D42C : 00000000;
    1D42D : 00000000;
    1D42E : 00000000;
    1D42F : 00000000;
    1D430 : 00000000;
    1D431 : 00000000;
    1D432 : 00000000;
    1D433 : 00000000;
    1D434 : 00000000;
    1D435 : 00000000;
    1D436 : 00000000;
    1D437 : 00000000;
    1D438 : 00000000;
    1D439 : 00000000;
    1D43A : 00000000;
    1D43B : 00000000;
    1D43C : 00000000;
    1D43D : 00000000;
    1D43E : 00000000;
    1D43F : 00000000;
    1D440 : 00000000;
    1D441 : 00000000;
    1D442 : 00000000;
    1D443 : 00000000;
    1D444 : 00000000;
    1D445 : 00000000;
    1D446 : 00000000;
    1D447 : 00000000;
    1D448 : 00000000;
    1D449 : 00000000;
    1D44A : 00000000;
    1D44B : 00000000;
    1D44C : 00000000;
    1D44D : 00000000;
    1D44E : 00000000;
    1D44F : 00000000;
    1D450 : 00000000;
    1D451 : 00000000;
    1D452 : 00000000;
    1D453 : 00000000;
    1D454 : 00000000;
    1D455 : 00000000;
    1D456 : 00000000;
    1D457 : 00000000;
    1D458 : 00000000;
    1D459 : 00000000;
    1D45A : 00000000;
    1D45B : 00000000;
    1D45C : 00000000;
    1D45D : 00000000;
    1D45E : 00000000;
    1D45F : 00000000;
    1D460 : 00000000;
    1D461 : 00000000;
    1D462 : 00000000;
    1D463 : 00000000;
    1D464 : 00000000;
    1D465 : 00000000;
    1D466 : 00000000;
    1D467 : 00000000;
    1D468 : 00000000;
    1D469 : 00000000;
    1D46A : 00000000;
    1D46B : 00000000;
    1D46C : 00000000;
    1D46D : 00000000;
    1D46E : 00000000;
    1D46F : 00000000;
    1D470 : 00000000;
    1D471 : 00000000;
    1D472 : 00000000;
    1D473 : 00000000;
    1D474 : 00000000;
    1D475 : 00000000;
    1D476 : 00000000;
    1D477 : 00000000;
    1D478 : 00000000;
    1D479 : 00000000;
    1D47A : 00000000;
    1D47B : 00000000;
    1D47C : 00000000;
    1D47D : 00000000;
    1D47E : 00000000;
    1D47F : 00000000;
    1D480 : 00000000;
    1D481 : 00000000;
    1D482 : 00000000;
    1D483 : 00000000;
    1D484 : 00000000;
    1D485 : 00000000;
    1D486 : 00000000;
    1D487 : 00000000;
    1D488 : 00000000;
    1D489 : 00000000;
    1D48A : 00000000;
    1D48B : 00000000;
    1D48C : 00000000;
    1D48D : 00000000;
    1D48E : 00000000;
    1D48F : 00000000;
    1D490 : 00000000;
    1D491 : 00000000;
    1D492 : 00000000;
    1D493 : 00000000;
    1D494 : 00000000;
    1D495 : 00000000;
    1D496 : 00000000;
    1D497 : 00000000;
    1D498 : 00000000;
    1D499 : 00000000;
    1D49A : 00000000;
    1D49B : 00000000;
    1D49C : 00000000;
    1D49D : 00000000;
    1D49E : 00000000;
    1D49F : 00000000;
    1D4A0 : 00000000;
    1D4A1 : 00000000;
    1D4A2 : 00000000;
    1D4A3 : 00000000;
    1D4A4 : 00000000;
    1D4A5 : 00000000;
    1D4A6 : 00000000;
    1D4A7 : 00000000;
    1D4A8 : 00000000;
    1D4A9 : 00000000;
    1D4AA : 00000000;
    1D4AB : 00000000;
    1D4AC : 00000000;
    1D4AD : 00000000;
    1D4AE : 00000000;
    1D4AF : 00000000;
    1D4B0 : 00000000;
    1D4B1 : 00000000;
    1D4B2 : 00000000;
    1D4B3 : 00000000;
    1D4B4 : 00000000;
    1D4B5 : 00000000;
    1D4B6 : 00000000;
    1D4B7 : 00000000;
    1D4B8 : 00000000;
    1D4B9 : 00000000;
    1D4BA : 00000000;
    1D4BB : 00000000;
    1D4BC : 00000000;
    1D4BD : 00000000;
    1D4BE : 00000000;
    1D4BF : 00000000;
END;
